Flujo_de_Potencia_Newton_Raphson.ipynb.txt
{
  "nbformat": 4,
  "nbformat_minor": 0,
  "metadata": {
    "colab": {
      "provenance": []
    },
    "kernelspec": {
      "name": "python3",
      "display_name": "Python 3"
    },
    "language_info": {
      "name": "python"
    }
  },
  "cells": [
    {
      "cell_type": "markdown",
      "source": [
        "**CÁLCULO DE FLUJO DE POTENCIA POR MÉTODO NEWTON RAPHSON**\n",
        "\n",
        "El flujo de potencia permite determinar el estado operativo de un sistema de potencia en condiciones de equilibrio. Determina la dirección del flujo de potencia activa y reactiva en las lineas, asi como el módulo y ángulo de la Tensión en las barras. Este programa fue escrito por **MELVIN ALIAGA** en base al libro **\"Power System Anlysis - Hadi Saadat\"** en su aplicación del cálculo de flujo de potencia para el **Sistema de 30 barras IEEE** originalmente escrito en MATLAB\n",
        "\n",
        "![Flujode Potencia Newton Raphson.png](data:image/png;base64,iVBORw0KGgoAAAANSUhEUgAAAqsAAAEBCAYAAABfdOzkAAAAAXNSR0IArs4c6QAAAARnQU1BAACxjwv8YQUAAAAJcEhZcwAADsIAAA7CARUoSoAAAP+lSURBVHhe7N0HuD1VeS/+8ea23HujJjGJvfeKvXexdyygqDQVC6KIGhsGxS4KKAhigR/YwN57F2zYxRprjBoTjdfce3Pr/+9nwfe4GPc+Z2bvfc6efc58n2c9M3tmzSpvW+9615rZ5/v/fodmxIgRI0aMGDFixIgB4t+cexwxYsSIESNGjBgxYnAYndURI0aMGDFixIgRg8XorI4YMWLEiBEjRowYLEZndcSIESNGjBgxYsRgMTqrI0aMGDFixIgRIwaL0VkdMWLEiBEjRowYMViMn66qMI0U5zvf+dbuOYc6r3PXc2/EiBEjRowYMWInYJLvtGh/aHRWK/y///f/yjHOJzi6/n//7/9t/t2/+3dr1+X53//7f6/lre+NGDFixIgRI0ZsZ/B/kmrwhf7Nv1nswv3orFbglHJA46AiTQj+R3/0R82//bf/tpyDe//n//yf5n/9r/9VrrfvjxgxYsSIEdsZCfCAcXMM2OwcCODxg8L32pV0zidapDyMe1angNNKETmr//7f//viiNaKyVH9zW9+s5ZnxIgRI0aM2Ckw9kmcFsfaWRmx/cHv4ZBKzjmm+c1fWvTEZSYvi1BuJJi5Xzt4Q0TdF87nl770peYf/uEfCrGl//pf/2vzk5/8pPntb397HqcUI/7xH/+x+da3vtX89//+30veLnQJNsrXp6ytQBc+Dq3NXVC3t2/7k3foMr7TUPMls/82X9u/68G2fa8L5nl2iIhM609S/btG+36NSflHDAtt/uG9YMxGfHNfvv/5P//nXA5r+5n6d9/ypj3rvG9ZQ0T6MOlY968+h3b+RQHff/3rXze//OUvm//xP/5H86tf/ar5u7/7u+bHP/5xWXWGdttmRe9tALKLOkqct//23/5buZ6BgRP3H//jf2z++I//eM27HmrkUZuz7xSxP/7xjzd//ud/3tz0pjct7Xfv7W9/e/Pa17622XvvvZs999zz3CfPefYXv/hF84EPfKDkvfOd71wisPorTQuBqwudJA4wx/g//+f/XJTeM+pEv7/4i784z8xlWQi/tUXivGu39obXZAANLnShC63U3l08oFD69C//8i/NX/7lX5b+aL/feHz+85+/5EUH1//1X/+1+dnPftZc8IIXLAnkC+9HLBfkEk8d//Zv/7bw71KXulS5ZzLKkP7Zn/1Zc5GLXKRco1vykmEGloxf6UpXKvfIchd4nlwYtM8888xS9nWve90iX6DMVZIN+g5oQ7bPOuus5nvf+15z17vetfkP/+E/rNk+/WO76AEa/Kf/9J/KNTbNBP8KV7hCobVrnjEeLNOWjfhD4EucCmDbjYMXu9jFmmtf+9qFX//0T//U/OAHPyi832233Yo8g2cFbD772c82F77whZtrXOMahceR92kyz5aSFzb2K1/5SvO2t72t1BN9I383uclNmrvc5S7lunKUuxHSF+Wedtppzfe///3SFtclY/vd73735qpXvWppQ8peBWQcdmSr0MpY5VoCZaE7O5S+OWfzLnOZy5RyQssu9NwIaErXjz322CIH6pdck+5zn/s0BxxwQGkLzFvnH/3N73DueWfoMOL86Ec/al7xilcUwXjnO9/ZfPCDHyxJJxiq2nkbIiLEjKmIqsFq9913b/7kT/5kjdlnn3128+EPf7goz9WvfvVznzxHeCiGAfDTn/5081/+y39pLn3pS5ey3FtPEVxn7E899dRm165dzac+9aniFBvoPvnJTxamGjAJZARwmVC//jAw73rXu5oTTzyx+chHPlLOP/ShD5Ujg3ata12rOK2rAnz6+c9/XuiOzn/1V39VaG+mSJ7xgtFm5DLgMg4G4u985zvNBS5wgZIAjZbNpxHn6LQZ/pe//OXiYF3xildcc6K+/vWvF8NKz292s5utGc/YAaskBmq6xwnrytPYEAP9m9/85jJI3upWtyrXydgqyYb2hh7OTeT0iaNCv+kJ+pqkv+ENbygT1Mte9rKl/xmU0OHzn/98yXe5y11ujQbr2cQRywE+A97goYmJMe+GN7xhsW1xdozreH7HO95xTW/wFdhDY9jFL37xIg+5DtP4Lc8///M/N29961vL+ElmfvrTnxbby+56LkEjIHcbwTP6oNwXvOAFxQZw6AQXONtsN2dbO52vkjymb3//939f+oXOfA78E2jDM3yoA0byc2zRlw380z/900LHpHmhbnTkA/ENtO0617lO4dkXvvCFcm2PPfYo+RZR50xPq1z69re/XQzWd7/73TKgM2gEmZHSiVUApmY5/3rXu16JaOobEGZ9Misx6NWgbBQBc652tas1Z5xxRgmB6/96SqBsTJSPI2SmZ+DkCF/5ylcuSoWe8g1BmdQvaQ+efvGLXywDOnrc6EY3Kg6ec0qyGagN36IhGsbpZijNtjO5whv39NUWD0g7yMNVrnKVYhgYb9cXpfwj5gedMejhzSUveckin8CAc6rwlfwahOkh4DfnlP7h/wknnFCctK66F5mRyAs7kOvSZspwjUXUkzZLIlQm6gZFk3gyzg7QAY7MZz7zmRJByZ5+gyOIst385jcvTrvIWeyYNKIbtkpm8AZf1WcSR29MtC5xiUuU63htpcCYbpz0O/AMvbrBDW5Q7KfgC8dQmeRkvT64Lyh0v/vdr3n5y1/evOQlLylJ7Iz8kCVyBV3lJnWSSUEIDjen9eijj26OO+645vDDD2+uec1rlvJWzV7rFyf8fe97X6Eve4VG7Jlgy8EHH9ycfPLJ5TdE3+iuiPfpp59eJu8QPV0E8FAE9dGPfnTznOc8p0RSDz300EJ7tlC7+Q14My9m4liEmwAz8Br39Kc/vQjaYYcd1tzhDncoRJJHmgUIGuHrW47n6gSTykk/GFUOIgFwjeH1HGITestcnDHCIqImomygIzSYZcnP4Od6hGQacl+Zd7rTnZp73vOezX3ve9/mcY97XHOPe9yj1KNs7UCDPv3eLKCFNmmLPhuoCCPBfNKTntQ88YlPLAJr9jZrez2nv+lz+3fyaItr4W2dKEWeTXK9Rq7JK2Lwwx/+sETEGcZMsNDejFR/8En+8AMdXOeoM954PqmeEb+XG8l5foevNXLNakXomedcr/kpTYNnDJiW/00APRM9p9f0yyTRRJMs08WU5x65NnFlE7pCGSk/Zc6K9C8p/Y7BdwytXK/zOE8Z7Xtd4Zk8h46iOCbklvNzTzJZg2yxQOOsBAEbka1V8kOfduwURB8c2/QJ76TwJHnaOgH171zbCHkGjIF4aPkfHzNWGec5OhzYGupwH6/JiD7IV5c5DcoXgRN5twpLjgSFbMWiQ8ZeY2ra0QXyoYtIn8kmfVSeSauAijrYbu3uU+4yETqi7Te/+c0ygRQswSdw1D+0wge0g/Dfb/Q1xolYp++LBDqyp2iN/rEDzvEgk4550bvVEUSJF4+IZkJmX4RZ9MJRA+cx3MqPAiOwYxfkuSSDn8TIO4aJoG3yEALE1Q9AYASX33I9h5Th/tjHPta8973vLY65AY2yScLrFIQBV9567VWPss1QOUIGVUKmDA5+lCjMXjb0Q8JLbQJtN3hps0i05BzP5zEA6Ebp0D19d55rUpuu6ksbPS/hdfhQt0ce15WtLDzEa8qfct3jxIoIJWJMBvBfHn1XJnlXz/vf//5izNU14vdAK/RhIxwt75n4mQSgvWuBvBLay+++Y3jpHM3dJwvrwSD3jW98oyz1kcmUDSIuoq629ChHPtHBtImMm3wb0GwL6gM67Xk6nfpmQWQ4SX9MkkX/s4/atcixlLz6VK9qRV/9lr8rtB89TOTQxsoRude/DDzawy4aBEXk2EYRHvXIx5YZJL/61a8WvkdPR/we6IFe5Bvv8Pdzn/tcoaUlVffkkfAXH9E98mDMcZTwC43lc+7YBZ7BL9u4bOki+2yi6+THPfbQMrMgFHn4xCc+UaJ4VgHJg/zGTqurJifqJ5frIWOspIwk17W9lteucqPNnjeeGpMuetGLFrlNXfqS/rrmfOjQd7TEn49+9KNrvlboJMCmvybgIuJ1kFA/01eRb7JFrvxeBJSNrsrjrIafruNl7E/aMC9mclYxmTCZOZvB1IKFgLUQzCoQEap0uGs58iGYo1QTEQGVWSPKbZChqDX0jyOrjxTTLFDkhRHOXpq0i8EwGCovwrIe6v4kv2drbFTGViJ8CCa1re5TXygPH9DbUoflKFFs9VJW95WPzgZRL89QXttQbND/2te+Voy3fPicMtttck15yrGNxeSKUwMxbAYOA7DfnFR79p75zGeWNuEReScrBmpODUdsUQZguwDdJTzFR9tkDMIGOUvLBuhAPhO9d7zjHcX5x08yYGL4nve8p+yjw9suoKvKMpnCa/zCbzxjqA30DLcy7bW3GsRhZR/IGlngnJnIcPy6IH3lTNTOtPr7gn3ynPaq335w8sdBQD9OQyZMIB+dscy3a9euQl9bW+wFRD+6Im/b7k0DGpBlbUiUzGCoDPckdXJaTPK00Z44PLMfOI4pu8tOeh4tu9a/kxC+oKkVGvaMs0cHXv/61xe6yZPJB5q7bzXr+c9/frFH8lneRnvbluQl88rsg4xfebkwoDv01yoSXtMVMvjKV76yOLcQfpMT8obnrkmTUF+v8+Wc/HE2OWJkrS84duwL2x7U9awK0FHCT3bLZMY2BjKDLvrjaBUIrUTE5fO+BXsgf+TAxNIkVxBmkQhdt4K+vZ1VDUIAg5CIE8EyowpRF9VgTGAss9zUFZ6jdJQPszgb9pARYIzU7hoUkGDrR912/WF4OSMUVD7OiYFs3333LdFjeaA2DBylPoxbFL22CnhssGSYIDSYF3jFWHsJhmKZDFAsjg2eoXGUNAabkWYwbeZ+3eteVxxKvzks8murVCP05vzgL+dEmeGhc9fJDCeADDJ6yiFXnicr8svLACyKBtsJoQk64gljaqKHr6961auKg1ODbr773e9emxSgNb7TX3va3vSmN5Xf0S+YRHf8cD8RziS8MpCadJIxkw37Ki09up8y8ZWThd+147kRUk+iwJBjV3g+8qpucq6tthkZiMgd59XgxIkAdXAkjjnmmEJXss9h4WBwII888sgSQe7alvSDveMsidQAuriOjvqIluoVdTOJF5EW8eH0y4dXIlsiPiYJ0JceOwFoQke8YMsZ9dWZhz3sYWWsMfngGKIpkH3n7J289ore+MY3LnLMfr7whS8s8sJxDPBiI8SOKTNfPwmMoyaaJuT2pOLr7W53u+Zud7tb4TmE32RPf9jpeSYndID8KVPZXfoQkFN9oT8JWgwd0/pHx9ECf6wIoYlJuN+u6yue2aoT/8ZSP731ErQATuyYiKxxjM+2qpjJWUUASmOvhEEBEDbEnQWeI5wIS+g5Lk996lOLwXWtZmibuerFSIpF6Z/2tKc1T37yk5tDDjmkKP9BBx1UzhkBG4ENinUUlPFVBuZnFptZiGXg/fffvwyab3zjG4ugcNbyrOdcQxfXnbs2TQC3A2KQ0MD5LECf0ArNDcCiBOTKC2f2hDrnqGSbhvwcWUu8+GeflD3Sj3nMY5qHPOQhJWJm0BaZkLfNC21VjkTGOKzuuy6P/pAjAwQn1SSFTHkr9QlPeEL5dI9+e96Ro2uQUNaI8wJN0V80kAHFS06NPdr4RpcYzugQnnJ2OLMPetCDmgc/+MGF3j4XJ8pioBRNR3v52YToYPgL4Skny33n5AsfRVMZdVFKg7LBnl24/vWvvxaRkgz2+FuXux48A2lLfveFZyOPnAPtNCkUTbHfzhFNs0UBDbTTPXrBOaQLnAkTarT2Vv5b3vKW0n8ITTaCethjNg2i567TRzzFW6sT+Hr/+9+/efzjH19eaKvpAbM4HTsJdANtTKDogAkU2TQZ4CjGZpmsoL/xCs3tEXT0roO39NlENkteCK/Xo7t78nB6lJ0Vw4BtM/aRQ/fplYnnAx7wgNLG8FXbyKKJiWfShlmg3WiBLgkMdAU91h/J+TLRtQ3oF51xDN8y1qABu2VsyuQx9gnf2ANRdQEbwTTj573vfe/in+GZ55WJt2RnVTGTs5qjmQtCQIR2VngWYx0ph+WsfA7LTCEC6z5GBnkOU5wb2LzVb/ZpD5VzysyZMRukBGagz372s8tSr/YzyJmNpR7GXdTA896EJRSMtEHEoCm/OrWFcnqWIPmtHaHTdkX6N6tRQic0i1KKzqMzhzP8NQCTBY4jWqtTXkbZ8Ta3uU2JcHMaL3/5y5dBmkLXS1F5DlwD5ade/HeU5ON8el47RALx3IzVrDQDcZ43qJCPWWmwE4COdM+kFi3pmqVGOpRlTqDDBmeRuHy2TV5OJb3ihNI9/MSD0Dx6D46MuuRZv+XDW46qqJPJqoiQZUzlGewNvsmXgaGOkG6E1K/NZDFty/Wu8JykXuVwCG5/+9uX9mgrJ5p8G5ziqIKoCyeBMxtHG73ZQm1Kv9A4ujUN6pZCOzYwUA7ai9SK8LCnggkm/9qbvssXRyNtVG9feuwUoJsXVDmq9hXSC3w2xuQTQOjnmpegyDa9wmvnaE4+5MfzILzGs2nAE2Wwv8ozsajht/JNfoyjth+YzLPNKd99iTOkLDzPWD4LIv9xnPuUQ+4k6Kq/iwZ+GbPwsUvbo2/8CPx+2cteVr5gYIXJKh+gKXpIaO0Z1zxjFcW4xb7iiVWYBz7wgWurv/JpE5thpbrN41XBTKOszuuwJTVLGAiEgK7PKiBhAMUyW1eupRDMEy1N9BPxkyBM4zhTFFESSTkGJbN9huC2t71tMf6PfexjSxTHLCSfgaDgHFeCoR3A+GcJWOSCAOizaKvBg9NLACilZMATaq+XKbcj9I3RnHf2jO4S2oGZu09s4MEpp5xSBkFOIj6ShcgXpSQT5MHMMdfltezB4Bq0DZTkxTEgM+qTn7HFM3kyoCvLPmV8Z5jJisHBpIc8JLJX1wnqHHFeoDVZsTKBdvTNBFSUzwSUY0p/AI/t2eN03fKWtyyywLCaMIoMco44bSYk+J5JDn1UR/TNEV9NLPERX11TPj66vtdeexVd1gaOGBumffIoV5nOlZNBbyOkr/qjDm0LYqe6QL3KiNzSM9tg7Fm16mAfGtnklJBB9k75Jleu2S5AvpVBNjnn6M/2yUd3tNOz09rluvpNEtjRWrY9x/ah3a1vfevyqRo2WpRVu+gJpyl1iJzjs20VrtGZEecFuqATGoqOkXW0PP7448vqIjqCI57KB/hKP9hh46XrXgglA+SZ/Ee/NgKehzf1tjtyYLuOen1iSjDBpBFP2UI6G9AdskFvjIHaq2+zIjIE02R1EuiQZ+lBVhO2GpxUK3FHHHFEsWnrQXv1D6/sNbeaQveV4bNbJ510UtEpNGWP5HXf0bPGQjbL3nvBEyvK+s1OskWOoQl+4p38q4je3oaOA2IhBAKGiPMIJ3ie8lkStgT4lKc8pcz4zDAoceomxOqDHIHCKcNMA4N9ANjAhzmEV15Knj1pidD52LUlNI5SmMpIi5rJqz5GwGzWAMKBlS/KpC4RGsKi3HkVdUhAsyR9QxvH8GKefqITxWMMRWc4Mn5zWk0GRBnIg8kEPmkDBRRtNZgafBlM8mIApeyiq6Jzls+UWUeGPK9OfRCtE31i2Bla0CdRA/zEa4bXTFYdkrqVAYyLZ9U9DsK/R+SEXDCM9pqitzeJTRrR3QfE0Z7OuSehpfwGQ8vLkkkqnt7rXvcqz9JrDpEoKZkhK+qpZRDv6biB03X8xjdluy5i4yhKjtcGenkysGu7Z+vIzkbwfGSrnqy227YRklcbLOeyeyZeHHVLrgYwbbbUp23ohl6u6yPH2wtpXqzyshrd2W+//UqblOWefxsymKlLPZHnGuSZ/ctKkQRopB736KjoqgkjB4dT7Z52pVwOE/0LHV0f8XubCviHV5wa+0+Ne8Yatg2fMvEmWybtsVcmcfhMR/zDIn6Iptm/6B5ee8nOM7Gd05AJPH4bZwN8F8Rx3ZYDk3tjnCCPfMZmULZxUdvoHzmZh9fRg5pOXaHN+oJ+HOq+z88CdaS/eEMX7NM3+TCGQXSi3Z5c1242SnTdSpTtST4JyW4ah/gw7BK7J69n0JkPk/doBOdMXOkdOykvueGfqYcdIE/4uYro7azqfI4S5iCec0LWZkZXIKZyDEiIbJ+gD+ZjlqgIZ0T0II5nexCIIHA0MMpgaBk3wuAoMQDqwDDLjQwBBcRwAxcHXB2E5qEPfWhxfkQwRGPtn7M3yAxWfwmL8hhrgwlFpShdIzKrAnSLs8/5N/iEz+7NCrRCfwb2Na95TaEzg42WPi+Ex+TLdefkg0E0KHNgTS58GsfyBweEsRYNMtAzVK7v2rWrGG889bz61KsfJhiUm8xEPlwX3YuzasJi0DdAyy+Pchzx3iAhn2s7HWSCTkhoetppp5Ula39FfItb3KLomKUpOmbCZyUi+eWjU64rB7/pIH3DDxEEckKvOUX2sHJa8cHzQfhKJ8ls7BRdNwjQUd9f5cRBnFd5yBlei2zRd9e6Im0gB32ea0M5HFLbFDgHIpiil+jCrpBjfUEfeTk5HBMTbpNzAxL5Rlt/V6m/XsrSNzZPhNvLF5wYz8c2BsrVftdMGEX92EX1ckjQ175YPKUT9pazs+iIrtqI7pwFq1Dq1BblSjsd6C2RE3pgMmYigc9sDjqiq4TvHBD50ZTjT6/YRnbHfbJuOwY94exwXsmH5+zdx2t8Xo/2eM2eipyyafTLNW20/9E3wLXL5OTAAw8sskg3PcM+6wdb7Bn90HZtnhXayjEz3kceu4L8kXm0yWR2s6HfdAMd6Ar9NblGG1+riYMpn1Qj+qeddJKT6zlBMp+iik7RI/fJQGiLRuqi+ybfnmFjRWONk+wHvQeTIn4PX2dVMbNVRVxCybNn0AhUX8FqA/E5mpSCEnIC7Etk7Mw+GT/ltxUhzAaCgYGUCWPiEEngHifG4MnIKg9TLQ1S1AyADHWiK/J4Pgobh1Q7LD0TUMYBQoftAn2R0ESfORsGLIMXMKKzggIzjAy2I0OH7hAlxnsROJA/kQKKzInh2JrYxICb8XNmvSFrcmHQtLTCYEuRFUpMwRlZA77r6mScH/nIR5Z+GvgNyl72MZCQE/yVOLkGB5OZRI52OtAv8oAHDC89NnC4h+4GIHzkWLEf4Dc+4LMBEy/xQfIyFtngrIqm01OOJFtAV8OPAI/otWc4rPjqmoiVQd1v/PKHHP4K0OeXtIt+GySy78ukpw/0D+Isgmvpd1doN4dDJJ9s61vKpn9ohJ4pk0zTCX1j0+gFGjqSbzbVwKWfbKl+oR27ra1xWGugEdAnfDLZwzfXRdNE/kTagLNKX2yb4SRk0OZUcfq96MEWp8ydDHQmW2iBrxwIUUr8YW/wlP4YT9EObQVGwiP2ht0SwCHjeGlyjx/KJe/GvLyMx3aK7Lm3Hsg+WWBHbbWxfST23WSdnc14RyYe/vCHrwWCtA2vBZPImPZEH9ty1QfkDS2U1Vd2yB+dpyebDX3UPke0MP6YLPhSDb6IrvqqR2jS7guex/6wlfwJ237QH83Bs/jJ9uFNZIgsWHUxUVGGMcokPLrOf4otYiPQpK9dGxJ6e5aIJBloKAUicxAxCxFnFVBE5QAoC9GVqzznHAazAi9cMYZRnCAM1y4Ky9DL074uquDzLtrNAYkTpC5GgbPE8WQoCIhn1wMjQ1EJhujMdgb+4IcleEY2tEG7WaEMEwSRc0aWw49XwGAbaA12lM91vOdMODLEJg8ibZznzCCVY6bputkow8UBiLwox7n+4LllzHyfUF8otLLjdBicGZHInDwcYEtsZMQ9ZW4kKzsBaIAmaEmXOURZbSA7eMqBFS3gTMmPpnTIPbouWoNvUpwp/PBVD4NmeESHDawx3IH63VOOQYKsukY+JPWpt56Map9r7IZ9ghxZDnFkZiMoP30kz9oMykwfu0BegxS7Qi7j5CsfjTj0aBC75Z68fhvMtAF92Gb9IrOci3333bfIsfz0QT1o63fSJOAdJ5895OB6DrRHH/VXOSbw+JX77tlD6TqnJjSYVs9OA3pEZskLZ54sguv2ieK3yZRxBV/JhUCLSQL9QfvIGbriCZ3yXgZYIcBrk+nwehI8pz0SmTfhMQnMnm+ypP6ADmlrJprycITUZ3LJQQLtm5XftRwppyvUx/ZED41Vm43QTt0cVdtsyDye+hoHGCvYQvlqWgJ9ldDRc6KjvoAj2o43GdfQ3MSRf8SmuU7nTFyMjybaaG+iL0jjWkCm6KMADp2s7eUqYaYwqM5KiIPQ+Y1hfQQ0z0kUixOAoPlsEeZmecLgYvZmf5Y6MTKQj2BLlJygmpkRkvznsJc7CLGlYrMedWirZ10nRJwXCkfQosTT4FltUg4j0RbC7Qa0kBI5QZ8+vJ4GfE60WiILIp2iSwZcn8ThjKqPQpq0MKpmr2lD+Oh5xjYzTftJOa2c4Nx3BOfKodiep8wxjOQLlK89rqcuRpkxJ2vqMRAk34hz+Gkg42hxuPALbdDJOSfWMjJjamBBU84QvRY5zQCMT+gquU7PRJ9MYEwulC3qk3yBcwM8pw6P5dcmKfdBvfjqOn6zPRxmkVwRzchAF+ifvqhPW/s82wZZ53jqF3l3pHO2tmSrC/qqj3NtxQk49JFBfXPfswY5ER5tsmVGlFQEjY1TvmfkayM0YxNFyzwHytHPHNHTuTLU6xnOi3I5yRxp95JnEVCPBHiY5FpoAPntXo55LnA999CD/OXaoqH/kT/neM1e4SfZM27Z0mGvvQCNF+PQ2FiG/yZ6+FpHHUNTY5ElYHLARonYcmiUoU/r0V454SO9NGlkg9HD9eik+/RYm5Qn0Rs6xhaaGIXGsYuzIGWrr83T9eAZ8ke2jSki0ZvBxxral2QrExuVL8TQG+f23+Mf2mhjjcgdx1rU1HhlonDUUUcVuoI+oDnfhD/EkY3DGh8sST6T+eimSQ69V772qE9aRcwkTYlWUQqGFFEwIccuwFxEwwhHTibCUjjEVpY8hJ7BNOuwX8M2AflSRg0KjPEElVEXFRAmp/j2v5rpiJ4qD2MjBM61W13242QPm3vT4B5DzOHxfLst2wloEd7qJ7oxUuHDLFAWvpsdGjwppj2JFJUzaGO/pU30lc/AvGvXrvLiFNnzm+zhQwZWRh8PnXOKvEFtNmpA8AzZUK/74a0onOgDI8Eou4efKTPlyU++zGzJvZd+Mnuty9vpIB9obDJh3xa99gKIySKeuSbyLQ+emCTgE/7TbU4rOpMxedA18kfmsrfVsjPHUB4pcI8ckBs6z2lWBj5K7tdlBuokAwYETkRd5kbQVmU5kg/HWeA5soQ+HBJ0QTvfpEWrffbZp0Re0JhDaBLOgUFXq05kHuhL2qMfBjV7uJXFibdaEbpJbdtV00h7LB1aPYou0A/3klKOc/cMoOrJMmxd1yKgvfoo5Tfdze9A/13HW7aqba/cq/vueWOb/JuF0Ax9yakovmAM2eek4hNa218tjzaZdFt9ElHljIrg6Zv76O0IeKM/ouBk2PfF8xLUeqj5yOm13Mzhyz3l5j44qtN1ycSRLUw5sZ+z8luf8crzdf+6QF7P1W3dTChfn+mesYt/Qd/IEB7wZ6yIWNo3GWnLqH7SZXvUjX/8FgEaK4he1MLPJBNPk3Z6yBaqV3/VV499aJZ+c1LJC7vLkc6Kyyrij/7GNw96ALElA7+9hgYXG/kth0ItKBuBwmEqJpotMNCiAKAM9ThSOIyyb81SCGWitHU+jFOOQZHCWzYkKAY0TqX9W5iZZzDfAEDAJNcyS3HPb2ka3FNn8qyXdyNEGDlBosdmTyLMyozyLRMxjIy7ZVJbKixR1QatL5SVwQMvKZCBwmDPYJpg4LPraEPh1cu4c24ZSJMSUH94oVxLMQZ4gyxnlcxwRNwnA3gceM49y2vu1cYuCbQBGAbLo5whz+Z66t/piCzjGx6xC/QTbUUZDLj4i08S2TJ59EkpkwrPJDJQ054z62sRBgVyJ1phCVw0x/3kVZ6EH3hVG27HOoG2eZ6xZ2dMnjyrDHmcd0H6Y88ZubY8p4y0rUs52sIGslnoRM6A/aILaIMuoEyTapOm+973voXOZFif1SXpO/tqWdm3pU3MRG0NhOypBG0bU59rE9pkjyooW56kQF/1mR1FR+ftshcB9UDq10bHXK9pnQlqUMtDeJ+j58J3SD8XjbpMvDZOoRd7ZrLEvuENeUI/uoS/Ju/sn4AKm1X307lomxeqnvvc5xZnhpNijBawidxMgvakTeggb/QgqW5z8oe/yetaO28fqJv803Oyn3anTRtBPvxGB58+1C4T1lnb0xX0/bTTTit9V1/4xubhkyg3u5CotXyBthqrrBZZibCqg3dejiOrIuOOkUu6hTaOtT+TlLK1AT3IDt9H8MC5+65vFk2UDfrMH8vKZdo3Dza2oC3orIQZCC8hBiFhGNPYjSAfgjIUZo5C4Aw0wxiC65x8GCXagHEcFtE1Qu1ZkB9DMY9Tg5GU3bNhqLzKcdRO5ZjJnnLKKeUTEXx2Tk6Mm2dT/ojfA23QEX0iC7NAOWSIAnHOOb8iDCLoFDYRsciaWSFlZqxFbQzcysB39wMTD29gUhYzVfuUyYRBIZORGvpCHrSjLqeGetIO+chUZMM9CT22Auppp0mYdr1Glzx9UdNKZMFkAV85b6KC+GB2z2HlbNF522jwlDNLFmJUA2WKIPruoP1c/qGO3jKGQfqS+h03gjzamWNtzKUuZYB8kZ8MErnetS1ANsmoyZu9Z9nS4twARe4i7+hoQptkYpYVIfnSHisUxx13XJmw+SqALRiWmsmvvG1a19Bu9cVO65cypyH5gV5tBrRB2erSJpEj20tMdF0L7cFveeVJQEIKnOub/rMR2bLiWjvvZgE98YszatJGZyB9dDSJMmFxj0Prd5tn2kxHTjjhhPLeBWdNJD3y0BXps+c2ooE82u/IhrbbNCvC4xy7Qlu1xzPa47yWh80C2bHKJ6qa+vBD/bagWblzXyCq3R688gkyOs6hlM9knE/lPHSgV0m1owrtMj0TGrC1WZ1MWlWc73cd7cVN2TGCs2jW9tKXvrQ59NBDy4AUonYRWnnNSCT7rmxAtmyBwYDYhE9ZqdNSic9oMMo+SE253ZdPvWYjPsaL8ccee+yasrnnqBzMUhfBYfAZeQLDcXXdX7wSmtTPmG82tEl9tjlovxmYb8yqn1AuygjMgtAeXwwI+f99/7IhCq5t4VkfKNfEQN85HRQLDfx2brLht0TWAB/99qw6PR/5MMnx23Ko/0MXoSUHDDt+ekuS4io3PE1ZEFmRJkE+bXPfuWPNl2nPzQP10A9RRZ8jESngbGg35ChPvjXLOHL+4qykvdrOYeG8i9xYauQwLrLd2hOeWnGxZyzLU65rJ/gdGmaQcy6JDCaf8vSDXhh4OVnJZ5J8wAEHlH1YBnp8VY5n3A/q8/WgPZ5FM0e/u8q1/HRERITdsfXhxS9+cSkDprXBfbJtT1mW9dBGfgNV5F0iu+pIma7lqJ2eRXcJQmPRNW0yKRCVtjpFb9lRg2J4oy5RILriWmRbGeGR8/XsobZou3xSV/r1gXJjj+jFq1/96mKP2G1yr611Gznrz3ve84rDapwi+4H2opfoFofe6p7ABedCP9B8EVCHVQBt1WYyjr90w2910UV9Q+fwWT/0J/KDR+Gx+9oXGWGbLf/jL6c2cmCyyCaoUx1eShRZ96yJvz3aygi/wbPqjGyl/knQDskz68nGRlCG+tgMf0DgRdkXvehFRSZBG7uALPsSyaMe9agy2XvGM55x7p3FQTvVg2bo7v0KOm+bjnbiKx6GrnhCBn2ZgZyJkHteHiseorJ0lLPrOj/HP+0J3BjL0JVvwilOuVZIrEBFHto81EY0BdfDo9iKzUB46HjwwQcXmffekGtkaD056oLe2wBUqLOW0C3FeTnC3lAzvxChCzF0SMIESpzZiT1pImIULym/DYCOBmYOa16SAkwUOTBLYZBsTQhjpRBLChEpgsHO8hhGet4Si4FQuZvJ2BqhxZC3AaADevoMFGNgmT7LlLPQSJ84JfbbmWSIrNu+wSGxj5F8MVwGW7wykKjbPcrMAIiwW+K0ed05efSiAkNnNskwM9DuMSYcV8uZMaraoO2S8/XonPt13jptBsgEY8jI+TcU9YhAxyCQWe2hN1YFLP9xNMh0HI60z6BHtxhLoDucX+XAIvqQNmkPXtFb8mtgNEByljmeeI7X9Fib7Mej/yYt2kzPJXk841l8zKeUGGpRWn2SRNkN0PqgDV342Ya8nmufd4E66QZ51mf9t4TZpQ1k3GBFRp2zVSZaXmhCH84WmQb0MLFGL+fuSaFljnmObbYfjj0RrZVM8K1ScI5FGznL2feqH+jKsUm7Q4uk9fqT/uaZzYS2khdyz56bmMaOoyHQE3ZEHjSzMidPELuGvgIm6MGRIE+wCNtLLjggHGJ85cgYK02ujD/0G18EKOhjJhCuW2kQSfWs61YX2bXYMPZXfwRdjIfGLbZPNJ4N4IhyVN0XqRORCw/1MW2oJyeQPEnrIXnyzDzAU/JoWRwt6BDbkfI3gucltt5+T3aCw7dokBtypl38EX9yYvkfX8he5Aq0hz7RR21yj3/CnpHN008/vdiNhz3sYYU/8rN5xjzySq6tAnuPgy6rz3hJJvBWfmjTKL/Dl/r3ZiLt2YxtADNFVlXKyXzWs55VGCDKZq9NCEPJu4ASZ2mKgZ/WlHQ0xseRQorqUlJOCmfHkbNnZixCaWDjoOR55auTMHMAGIJEBw0Yr3jFK8qXAjiKBkFCFsO3mSD4+rQqkVU0PuaYY9beepx1Ro2XDLioB1BgA4960m/8Cn0iH/iCP2SQ3DD2jJo24jfDjsee0XYRJUbZvj/HreDpIqD9+s+RY7wMRPYotumBFiYQtj8YpOgieuBL5B4dOCScIuWQe3ncU9YiaKIsbQF8ZVDxhBHGVwbbW8Z4QHbUzwDjtXPyQI/Jg0igiSMZcD3OaN1WcqJONsDz7sNW6wt+aAdZxAP177///ufeXR+eQRN94VToq4mY6xwRAxL66LNBTCQu0TDPkA80kd9gqW5tib4qz/OiMJ5BIzxyX8IjkSFRSRFqToJ87g0R+kaWI9dkhWwluo4X7AOgi/7RDfbAZKfee6sctEA7cuc3G8GhREf6M68sKZMDpq3RWW00CTfJzvhEZ8mx+rTFWOAlQgO+7Ql4Qj4c6ULahreCHGyce/SAYxr6yCOF7/KRIy8ba497ZGNWG74ohD4mbPZgs1Gijvqcfm6E0NZkzaqL7WTK0PdFQh3hq3dknPv2bNoY3UqfOKNWTw477LDCS6su7Djbx4cyGeeg4wMe2erEjhx99NHFDuYj/494xCNKeXwun+B8+tOfXla09U9ats6mv46DiKwGjKCoFsNqBmBWh4kI1rVRGKMcszwhe/vWsn+tTpxHyuwe5kgGZVEChDBrJjB+m40xShTazJMSpk2SfITKQCjC4D5DZmbNuHsxi7Gi+FH0zQbmSqsSWRXdQWf7SrVtFhrpL3mJcWW08cwRHwxCBhoOrLycG5MPg5LoAkWXx1FEKS8mxHFRpoFJEmH120C8VTxdBPQbfRlsg6ioV22Qcl9CN9FSy7i5VsuOvJxGulHrBZ7KsyiapD6GV7vVw8HiJKcOkQKDMX3VJ04GXouec2gNqIy6qEgiQGSDLNBN/VA+frpGn/Uvcpo2bDXQkqOBrvgF2gWT2uSevPpn4owutlaRX/aUPTDIoREH36AmqmLViEPm3GBgwm+Aph9kHd3dF1H0ljFnGB2z0hC6oSG6c5zQmgxFP5ZFw40QPqd95EKkMg5mEsjrPBFItGbX8yx+KQutlIFG5DVl1PozD1JH5BS98ZUdY89E0TmuIoHsF+eaDtBn7WDnrDhZFaE3ZMOzoFzOp/+E5xSZhLJ5rpMj/dUndTs38aVjHDn9U757Q+A32nAAvTkv4GCM0faMxV2A1mTaS1poaQVwM/rGdxEs2bVrV1nBsEJk7KaLjnRTYtO8lOwFq0wUjFn6xo5xzj2P1+wAHfdvjnScQ2vSb/+xSSm/xzhmfBRYI/P8BLzWx6HwEAbxghVwMgi4gZFAxCjUhqALEJlymZX4GzczB8d28g8p9qDU931+hVPHiBPIfffdt0QzlOWD/5zcRNHqNvktxXiYVRMuQuFzIaJ0lDh9GnFeoGUcnb78boOyhQ8xrJY58INciJ5zaFyj9OROfSYXFJ/RtmznaPA1+MT4hs/O1ZHogXavCvQ1/dD+GCV9DP31KYnx01909Tu8STmeT97QwfVF0UQ9ypJyrq0GZw6TPVn01rYhTh3HzOBikDWI4jNe0nd5OHCMdBAbk3Plp0/O3XN9qxE66wvZNJkD8uraemBnJIM0uee4cBxNzkSXGH2OChrpn+V7NNFfDrH+2xZDT+QHNDCYckoMbCZy7oVmkrYp04BiGdy10G4ZNOyKyHLa63f65Vi33T36kPvOwysgN+gXG+G388hTnXdWKINtU6ZEHjg05N2eUXzmmNAP8i8/3hiXyIV2ia5xUlxPkCDjk/LYPY6uYI587qGRlD4pt92v0GsR/Vw09CkyupEOBfqh755BP89vBtRBB2354Yh6T8JKo+QFNyvN+S2JkLpGT/XFJDKfpcJ/K6lvetObSsCMvtNXn6/CPz7Mgx70oOLTkCPP4yO+mZQ4V85OQG+rhFiEgGBQJMI/KxCcInE0JMzokuQ1IKsbs0QKDOYpI0fMVkeNGC0wAyNsZju+b2aWQkmi4DtFCPoA/9FQ6mpEJoH8SDGYaB0jYKA1y6SMJg9m2bZpiKDLi9/yiNa577NHDHic1fA9yW/8dD5EwzwNoVHanPYn+Z3rdd/yexLyXPKmrEUi9eOngcOkkqMqCoZ3okJWVLzUGMeLvrInIhAiXF4AkzfylnY6T99ST/t8GQgN0+ecJ02CZ7Q5edCJA+pIZtHBBESUiFOJFmgSeeagWDJljzkpaBid5KTKYy8cWhr0QJ3qCl05yaJ1ztm99GOoCM0cIwtJrtXtT96co1uNlJF87fIWAWXXiYxzODmoHCry79NVgj4cGPxgx7QF8NZ4xga6HhlIm+3t9k9tAjjGL33MPclvx9RP7/CbjKoj+YcE8hkahA5doa9WKPLuwmb0TZl0i5Npyd42Go7mtOS+6Cin1kTF1gHP6qdxy5I5B5WOuy7oxgbgNT9H4Maqifzy4LlVxHzWyljo3nbHTBqJiISJwMdxXRVoeww158c+PuF2+8DssRCGx3hplfq1lYhioA9aLgLKJFOWp8wkRbotbTLmDLxIBENrQKXABmP7fBiAGGNtcRz5NgzgKV5ZxmbcDcaSgQSPLKNZ6sY/W3IYbtFFW03Igjz4vQrGODJXy17ON2o7W8QB4cRw6r1M4cULMm9JH73ytQDblwxQZJ3t9ZzrnBxwjRNkwLasb9tH20bLH8eUDXes7w+d1qsM+mCyZmnfnz5I+M22uYZXAi/yQXhnIiKPMYtNxH86IhJvIkJ3oifkow3X8Z3dpHfKUG5fZ3AroF0mtuw+Oe0jj6ENGtKNzUDGGVtL6KxkJcgEZL1kBVj02+TRSoi+6aPAjImnMjKxVL6kLnxNvbaLWJUyOeHYZmI8RCzajszkrBJ6ymOZzqyPQoFjzocKBGT4LSv73ImNzKJ23qT2eQlLePo3YjIoEDByzmc1dvhA+ZIi2Pbv2AvNKOOFyLdlUIOxfOq0R9WeRo6OGavlGDzTFsaKUZd/6LK4nRGe2q96yimnlAE5e+ksg1nN4MAalC2d29+Ft5xW+7Hcx1PlOCorqZYZPHZcNtKGvu3RDzLLuRRB9XFwkS9fvRCBQQc2VhJl5dAYvNAO0MaeTA4+fQCTbvQ2IIrYaZO9cZwU56EpuG8y4bqBz73o+IjFgFOJvvjGubT3lA3jbIj+WSFi57KNxzGOFocGsudeVI3DScYEWsiFrVBxUF1XHz6mXnytr0cG8Nmxj7xuFeiExKZHVrtAXlFokzxjyGb0TZvYsdgvR7RU90YJv/hOnsEzCY8519rsvnzR7/AJz6w60W3/RmWPK8irj8vWWW2IU522aNsi0bs0jEJcKbN6BM29RTdwkUBQ7aPsGG9QsBWAc8R5FckQuSAYIyaDIEYY0XNWWnlWirF0tGfL5npy5JMdEkNr4PYChCV/g/epp55aoka+iYiXllk8z7k18bDU4hoeuz9i60HPDI54l5d/7M/KSyMGWhEEERSTDU6afebe4jWZ9LUOcoav5IGMKI88JDGOsT3LhvZpjxWBtMm19eC+xIkUYdNnS37eAn/sYx9btgSgndWGfMIon5gC9OBsJh+n395HtKQvieDRBRFrdk49HCW0rZ0W5wbO6PaIxQCv0NbRqp3/fDd2cjgs2+Nt4CXjRFTZrfBEfvw0+RA1x3ef2cqLOewinfIsJ8o5vjqqN3riqFzOHOcIXI+8DgX6LeCgXdofee8C9KIHdCrO06JBR9AWX9imPjojb3iqDEkZcXqjgynTPcg3Wk1afCHE2JYgjdSnDZsBPCKXEt6xg4tuU2/PMsIdw2zQQGDQ4GUTbSNoI0X16Y7jjz++CIAN0P5n27csLZulH0Pvy1YDPSgP/hPKeejj2RghR0udIqhmnd56xCMRBkskFNkyicmR6JMB2Iejbd+w/MWBNUh7kUe5BmlfqfBpMzPREcuB6Le31RlX34gUKWFY8ZPz5Q858FJU1YtVHFrOFxiMIx+eC8geGYwcwhD0VFv0jdwmKgLpwyRoN9vpRSjLe2jgjX1liEJzLDjuJtBoxtaqA9hfzyfi6g1jqwkm3KKoXtJCI5/z8+a5bU7KNJHzYhv9Vbc9cN4+z6AnrdfmEf2AlhIHjE0S7fN+hGg4HrqOjxxOOiIvXuIDWxiemNixf+TMaoVJILB/HB/PiazHQXNODpTveVAPvWMf8T66NETUcthHv+U1ZnDqNrNv6qlTH0x7Jtfqe/jHNvjclW/I+1KAP/R49rOfXeyGPqJVbOGyoR1sy2ZMFHo7qwRIgxhSjoDQNcEIsYZCtEmIEJh9GhTMZCWG3AzX4JmZaRRlxO+BJgSRgjCkMEnpusKzSSJGlsgY0nrPjsFaFNVeH0babJLjykhrj0HcM87Npg3S+GmAp+Qc2RFbD3KCVwyqF0jwidxwjlznwNrHZQ+rbQEiiu4zzvKKJMkrSuhPQzi0Bmj/ZOWFktiZoeipdnMmOdaOEBleD4w6uRc1FWnj6Hqew4IulorRJg4LJyMOjmuObJbJGieUvtAVDmzeKM/H5CW22gqE6Efal8lA2j0Umm4X0AUTCRMwNOYwojHa45eJuk8x2hJgXGWzRAdBHqAbJiZ0x7/QkRMRdbKgLLLiG9j+ktgqoUi6b3Gyq5k8KYvekDkOLniWHC0T2hCZc9Q2bU67+rRPH7PUrqzQb1VBdkw86K6XKek6/omys6Hh6VAQ3wAPwtNFobeUIk4EgPHUKASMwA1dOAh+IsGYLGlzDH87jTgv8NjglgFuHhrVzzLSDLrogev4Iurm+3U+kcZBNSCLFlDcDNAcWEth9jr6/3lOLF4y4iJUyhux9SAnjKyjiB4jBpagLV96mUB0KQMROwJ47hy/3TNo2Y8p6u63CYmvCGSZKXZnmVB/bEqcgK5I/5Vh4q8cfSbbtin5Z5w4JfLKow764Zq8vtVJH71sCJwe9LbFIi920BcOMLrZo0o3lKcsedHSb+1Im0YsBuiLpmwR2fYb3fHa1ifRcKtE+CUfhza2ET+c4x87SP6tWJiQW4XguOA93pIH/6akDJMcwSSOr3o4PWTGpEj+lJt6lglt0Xbt03byrL3alutd0e6PslcVaIHvJp8+h28yYvXX8UlPelIJAsgT/V0m1B9bok3s0qJp39sqERyCJHEcLGuInmisRg5dOLQzjNXeJAodQieN+EOgHVpJ84IskRdH0QZRbg6M3yILvjnHuPpXL06oyZH9VpwdEQPRBANvPuHhHN98z87Spm/u2ic5YutBTkwg8Mv+KgMyhxNP7cm0DccMXDTRb/dsGTB4+xSZwZbBIxcirXjMgeVksT0MY2Rn2YjN014OSWyH6xvZQ3Qy2eJ8cNQ5HV6i8eKnPdu+rygPB4OjLzIqaspWgbqsPNANq0OeoQvRU9fRj+Ni7yr94gC39Vc5eW7E4oCeZJXTgc9k2MqAyKf99ZxJ3/fGN/kiO+S8Bn6b9JmIePvcm+jkLXwUfTeJt5XG3m/l4DnnWCDAUV7X1aNdzofC7+ixPln11FZ9jpx3BedWn5Sn30OwD7NCP/TfBBXvbRVBGzLgN57KE74uE2kHaDM+Lhq9exjhJgRS9iYgFkEZsb1h8M0sPb/nBZmybO9PABhYxlz0jDI+4AEPKPeAkvqovOXNvIDDcFNc7aAk3oK2dOw6w62tI7YeeOFbgI9+9KMLD0R8RIU4pyJ9eGspmjPq4+gcKhMTTpvnOLKe46BZKmWk5RdJ58hy3iT1LEIG50FsYpbvYxMh9yZBu+mRSJLoie0Atjrk34s48RzR9A89lMfOsrf6DhwhNNxjjz3W6KZczzkXULCNwmTOX1FrZ93GZdNvJ8BAbsLtY+94YrWAvOdzRoCveIG3ZB1q+fG8P8YxqQ9/pTjDovEmI87tU/aFCatV+Vc1iKO6nlwuA/pMLtmBRIz1Mf3sgzhunh2xHGyGTentrKYRhCofrYZcj6CM2J7AX0aAYYF5jJ5nledIjuyts3eL8+lfW3xzzj5iBpbxErXy8pWIKYNtMOfceJ4Dy0n1UpUXGUToTjnllBKBHbH1wBODjo9dmzjgq0/s4Ge9n8zRIGwSIuInPz67blC3bM3OJOIuWsJhFamVJ/IzBKQ/iTBs1K7cFznhxKOB6CgakG10iYOqTI5rnknfOSFezPL1APvYMsiDvF46tIT4nOc8p+x19KKGrwKAMiT5HHNtxGLBCZUs85uEkHM2jONqohJHEvAC/+xvbQN/yYgIG8hHBsiGlSi8pyt4aDLIJorg0rfkrXUrZURelgltQAf6bcU2UdG++i2/59DEqoLfI7YHZo6smr1FsRylWulGbD8wcjGOHEiY1dCRlxgiR7Jj0BY9zWeOOK2WE9QlOZcnzotlL8tlymCsLSVbcvYCiXPGmnEesRzgq0ktPublHr/Jj8HUBMXRYJqlbNfizHpeNHCfffYpfPSWr+g7h44MZOCdVQYXhdg+fdNGv7vCc2yp/nthglyLNqMLeXef7KOZ/ooyG8gheoMWHFb1px1A/jn2/g3HJAH9bc2w91HZnBuTTuVwpjIBdT5iMSALsV/hDTnHs+hD+IsPGU/laYNecHjD5/o5ZdlOYNJDJxxNTPw3u0mPMiU890IXGZIvadnQB/0hl2Rfv8ih9rrXFehHjulKXkAasT0w07Qjgh+HdQjCPmLzEcVnPBiTeRE5SopRYohzXt9L8ru+R/44OSIWPkP2whe+sDn88MPLf8wb/EcsDzW/wG/8dS18Tp720aAsmmTZH4/lF5kSVefQ1c8uG3GYDbY57+IIaPu09te0kCzpmpQlKpbnQke/a5o6t0fy8Y9/fHkpQ3ra055WHFtlyAO1o5o6RywO4Uf4WAOPav7hiwkPZ7aNuow6AefMyhRnlvxxdu1d9XWUyKS8Jve2VXEII58byehWQPs4prb2WA2TyLq2d22ffMrxDGfcC4ojtg9mtkpmQWZzhH8Iwr4e6vYNva1DBbrFMAKjsJW0rOuukeuMr60DHBl7Hi2l+mYuwzVitYCnksE5UUKyZoKUaJKBjQzGEVgmtJXDwdHgUDrP9cjnrKifJ89euBJhi3M5CWjFAUUnUVUv44iu2ZbBZgsyJHoq0uqFtuyNdX0r9XrEeWE8tY/VC4XkexImyRS+RQ8if/gv4SfZdOQEc2Jdj/O7bP3Rz8idlQOOKoednNeTqi6I808/8jWSEdsDM0kp4dpqZ2VWaCNFkKKwQ4d2ZjBadnsz4OK3dmXpcNILAMuCNsT4giO6ae+I1QSe4mHkzwBk4oG3GZCkISC2kLzRC7Zm0dBvDqfIMmcTLdbTvVofQr/ohd/ug/2P9hTbXhNaj1ge0N8EQ+ojR/jpWTwO3zN25JpkskKOIPeXzfO020RUhNgEitOqffqVdnZBPU7lE10jtgdmclYJF0UycyEQyxb29RAnlYM1dMFFR8rmLVH7zYaCtAvQUGIMYmSWjQzEjoybxPBJQ2jfiP4IP6XwkrzVvPZbGgLoBCeS0xcs2t6Qa3WEHtMQvQyNnHuWg+u5WkdErzgIo84MA7XM40lXhMeS53OcdJ0MQX4vm9+Z7IHle+8d+KSXlyu1MWPPRiDrxvt6rBqKfRgxP2Z2VgkCwVi0QV4ktI3gam+Utc9sdasR5WKoQuMhQFsk9DPj5/z7DNEQkbYmjRix2ajlzPlm6+0sct1+xu9J10YsF+HLJP50QZ5pPzutrFnqWDS0QTJWG1tMnmbVofTH80MZP0csBjM5q4QqMzYOzJBBeDlWH/3oR8s3GynDUKGtFKzrTHKroE34Ldn35q8wHYfWzhEjlo0MllCfjxgxYjKMK3TFeOLdA18OmcfZNMYra54yRgwPvZ1VQiXyRwiyBWCoRlm7tNFnjHyH8OUvf3n5PVSgqTbXCrZsZVN/2gX5uz4TFcfRYR2x05GB0apNtseMGDGiHzJe+/fBWXVI8Izz62iMGnVx+2DmzSpmL/ZVLtuZ2gjaR3gNIuB8qKBYlMyeIke/h6Bs2mBANknJ28S//e1vy3HI2ypGjNgKsIXsjIHWB81jEx2Hbh9HjFg2jC10yFgi0SHoO/bRNWUZ4zmqo/5tL8wUWYUIRqIKQ4VP39zlLndpTj755PJXdV4oGCrQkbL6/M0QIzTah55erPOXkDEKI0bsZNABemuC6ZM7Af0dmg6PGDE0xH9IIMln1OJb9EF0jS56dtS/7YXezirBinBxXPIy0FBBAQwgvsF5kYtcZHCR1baz7zyf6IEh0FabDMSOWfrnTMcoDA3aWadc0978HrE9MAR+1ro61AGSnma/Pj3wdZTYnlEnth/wVsLrods9+sOP0F6rdf60wr/e2b8KXfVJH5XF2c13g1cJ2juOUdPR23NDTJ+XEE3wAeOhg6BTBG2lCEMbSAimgcNAkraJXGZpcQiCGyViCESmJbSsB8ChQFtjpNM+Drbv9g2trSNmg4mS1QcperJs0A0pfxc7NESH8/1mtgbtVmEr14h+CK/pSYIKQwa9ydjHr7DV7GpXu1r5KkDseBcoQ96f//znzY9//ONS7qqBfhqvvBuCdyN+j97cJAAEimAQpKEMFtMQJYD6fCjQpkQt0TX/h5/BbwiIMdFOxiD/K+23tg4NkUdHSds517k2YnWBf+SR3EnksetgtllQPzuoXb6UkW+tDknW6IBJuzbSW7/Zb8dRJ7Yf8JTTQy7xWBoqoj/RbU6qL/f4zmof2ZQ3/SXj+r9q0HZ6arxyHPF7zOQNIWgc1aHP2oAC5DhUpU3bRGayB24Ig4g2aYcUp8D/svsLRxhCGychPP+nf/qnYvjMUpft1MyK0HiotN5KkEc8fd/73teceeaZha/L1umaLz/72c9KVASGYmu0TzJ4f+tb32re+973lv9NN6Bn+XXE9gG5szp30kknNa9+9auL0zdkRD4zBv7iF78o0VFBETLaFdE35XhOqnVz6AgNRFd9bvPXv/71uXfOwSr1ZTMws7MqqmFpfYiRtRocav+IceyxxzYf/vCHBxdaJ4AZLCjnT37yk7VBJA7XMpH2OaIdI+K3PUExLkNC2mtg/uY3v9k885nPbJ7znOeUZaFVM15Qr17ol9+MGVlZhYniooEWnNQnPOEJzdFHH11+L1tP6ADZsqTuTWZtGhK0T9K2448/vjn00EObM844o7Q591cV9MJ2EH9zmy0OOx1owk6/5jWvaV73utcVWzFk0N/ocMbCWib7yCeZFuxZRVuvvdrNX3nqU5/avOIVrygTX9eHErxaJmZ2VuMQDH1fhTZ+8pOfbI488sjm9NNPL3sXhwS0pKgEUTLQia56eW3Zg3CgHdppMOBMi2xlYIhxGRK0iYGm6CIMUXZ96GP4lo3IBIT273rXu5pvf/vbO3ZgjvPuw+H+Qzy6s0yoP44fvsRZrfm3TGgDnbC0eJnLXKa58pWvXAINaBndXlXomy+TsO+nnnpqiRjvdOCnP23Za6+9SrIHdMggm5J2G68loEeudR0HyULkmT5KqyTb2irxUb761a82X/ziF88zfg3BliwTM3lDIR5hGqKzUkPk90Y3ulGJJuyxxx6DeyksAhqaoqcBz7nk3jKhfgYgym/W+stf/rL50Y9+VO4PTYHSHgPzda5zneaII44os1TbFkRg0HRVEJnAA5Gjd7zjHc2jHvWo5iMf+ciac7TTQJ9ve9vbNieccEKJrmbLzDIR/SVzeYM5WLb+gjZIJsH7779/c8wxxzS3vvWtiwwNTX/7Qr++//3vF0eVTNjmMOKczz89/OEPb/bZZ5/B89j4Qo8ljup3v/vdMhH1FR9t7+pjkAVlGePte/XcKsm39vOprnWta5XJ12Me85i1vzfXL2knY+beM3QGDgKGyEMFBl/xilds9txzz+a6173uIAf5KKSl/wtf+MLFWZWGoGjaFWOB34yIQc+Mz/WhKhCZxGsvrF3ucpcrbfd7lRQ+xhfo2cUudrHmete7XuEBA9aWD7+TtjOsOtCTC1zgAqWvy7Y/oTn58iWA0H8odpGeWgEjQ3QX7eovFqzyIIjWl770pZtHPvKRzUMe8pDy2aM2wo+dAvw2fmTyZHvK0IFH2k0+8ZCjyma73od/dM7kNQ7eUHSwC6Kn7NtNbnKT5trXvnbpQ2iz0+S4jZmsFKIRJC/aICxCDhUGEDMtM02D2xCdVfQjlHH+JXQdQltjLLTRrNe5WatlpiEaA23i9MfQoaHkugF6iPyfBrQlC9qM5v7cwgsTd73rXcvvui/6ytDhUZaih6yX8yA81n/9Xja0JwnwbGiILKAX2SBbGdhXWU704SpXuUpz0EEHNQ996EPL1xhq6Bu9yGrVTkDsBl7rv7Fk6Ehb2W12+uyzzy7L4dH1PohNWCVbD/qvryYZaBAfAA1WWUcXhd7Oaowcg2dPICPg91ChbRlICMLQ2kqxCCQl5WjYc0VJh7QXWBszqGmb9opmDBHhtyNlx/MYr1V04PQjfdIfE0Sykj7WSN/cg/b97QB9igOPt2gxhH6mDZE1qM+XCW2rB3y0IyuSe0Np5yzQfv2JPNRIH12nE85Xua99gB6gv226DA3aKBljkrxzMAuvPIPPGa9WCbFroUfsONTnOxW9KYCIMXBRfmnIyEAyVKAf5TLwiliKAJtdDQEZCCSzPUvRltYZQG0eGmp5jHNK0aUYwu2Atkz7nX7qd65tN+AtnhrM9HMIRhydJ9F6SPTXlsh/5CPRxjg22w36TF58Aujv//7vS1+HxJPNBB3x9Qcvw8YeDhV4QgbpsnHFVoBZ26wsq055gXDofa+h7WjAaXWMs11f28mYufeId8ELXrA4WEOHPTs//elPy0sqQ0OMJ8WiYPYjGkSyz2jZypb6oziMCTr6nqRrQzP+2oSWjl4E8/b8Bz7wgbLHNhGW7QK8SfJtwl27djXvfOc7S4R+uzog4IWa5z73ueWlmiE4IGRNwgeO4NB0QnvIg1WRU045pTnssMOaL33pS4Nr56Khf2yAl1Ue97jHNZ/+9KfPvbO9od8+XYXPf/M3f1Ns9Sog+kOXZoVnybmkvFWC1VT2zFj1/ve/v/nQhz5UXgo2Zkmr1p9Fo/fITRFi5FZh4OdYcVZ8DYCh/u1vf3vuneEAHQ0m2mobQH4T3mULqPoZgPCcI+23NpqwDA3ayeBReh9WPu6448rbzz5vs51mp/iij/pKpr/85S+Xfr7pTW9qfvWrX63l2W4ge3Tk3e9+d/P5z39+EM6q+tE6W6KGNlHQNskA7hu1H/zgB8vXPLR16EvE8yA6Yrsah83Av1OAtyawIsqJpA8V0R96Q78Fathp5+BeVyhL0Efq89wQkD5/9rOfbZ7ylKc0z3/+88sf2uiT66vWn0VjppEb8XIcOgEZK0r7gx/8YO2fjIaE0I+gaptlG5Exwhk6LxPaF6MBGYjjJAyhjTVCT+3yRqlP9HgxybcGtbnuyypD/8iMo9WNK1zhCuVTTr56YV+rvm5HkL8rXelK5bMuD37wg0vfl91X9Uu27mibgRKGZBs5LOTCp8/8ScZNb3rTNV3eLjrRhn7ZUnXwwQeXP4W58Y1vfO6d7Q+fPEpktf3S2dCQMUYwgT77XetOHz1iD+nhpHKGjugju37Na16zudnNbla2BeoD+gxtrN1qbJ810Smwz9J3GZ/xjGeUwa39HcQhwEDCUbVXh9MRoYVlKxvFSQSVwminSIUJwBBBoRMtMjjvvffezX3uc5+yZQWdt5PC6wv+SAake97zns3tbne7wex33iz4ssc97nGPZrfddiu/9X+ZwAe6QVdFtbOFZ0iypm3kwiB4q1vdquw7z/Xtilo3fA7p/Oc//7bubw2yZ+Lks41kc8iIHTPhY6Pn4ZFn7WfPVqgh6eBGyEqq74MLPPgmcj5lOWIHOKscF//asvvuuzdXv/rVB7fHNoqamVOWbFzjJNaO6zKQ9jkyJvnP4hiBZUe12tDW0A6vL3KRixRHNfe202CFBxIZ0VeTHVE9Tkn62h4A/B4az/qCTnM8MilZNk/ROnrqpZYh/r0l+xJ7gm5kIE7MdtKJGnRDsII+ONfv2C2gFyYWtkcMbcVtHuAr/rIJ+o6/Q+Zx2uYY+1TzqQ/03Z5PW6Ocr5JsZ9wyXvmXuUte8pJFX11Dj1lpsl2w7Z1ViBAMkeHao30MqUHOHqPMpFxfNmpDR3E4CQaADHRDVCB0m8bzVTJeXaBv+FLLinPX45A4N8mwDcbAXDsqq4q0fwj81AY8iKyFF0OSNboAmbikrWRhu+lEDXyR2o4q6Le97L5dfMYZZ5x7dfWhn/orkcVJfR8StA0vIpfaOyvIua0fJu6xg6uC2HFtjg2Btn3fqdhxFBii8GqTxFnlTAzJkWBAMsBRGM6qGbtlFhiyEkXxKXsi6jtF6eOkOv7kJz8p+9fsV/zMZz5TaDFEPegCcghxQvRj2TxVf9pQ03UoNNYOgzhZiB6jXX47387Q/0m80Hcvmj3rWc9qTjrppDWbth0QnooYZ6IyVESnw6N6JagvPOd71CLK85SzLLRlNeeT5HenYcc5q0MDZYpz6pxQDm0mrC0GOEdtZPxiDEVmhoYYKHS1LOuzZYkg7SSljzPiKxMi9rZvGLwib6sI/NMfXz/gaJDD8HsoGGJ7Igvf/va3m/e9733l7Xh2hi7vJJ2ood/27voLY3ta54noDQnREV+/Ofnkkwe5LaUNbWajHTmbtUzW5xuBjGflyHN9nh0CYpv1gbMN+jQ0m7IMjM7qABClMvA6EtKhbKquo0YUSbLMcvnLX36QM1ft0UZt84mjl7/85eXzVRxW/dgpSp/oGWfE3qcnPvGJ5dukBuYYxFUEvn7yk59ce8PboDy0/kRfhga08v1Gb4h/4hOfKLqQSedOBD7ZG/jiF7+4vIg5VL7NAi/AvuxlLys6YsI+ZMRmxz4b+xzDjz4Op2fIdI6r5KxmbLISRiaNXb4TzOahT+7vVIzO6gAQpXQcYqRDu2I8fE3B0WzdcYiRVYqNhv/8z//cnHXWWSWalG8srrKj1gf6z1hL/tHFp4ryFji+rZIRr0EO8VCfRML8HlpfMqgMbXAhC17eMHnxpQxIFGonAj3Ys6tc5SrlRcztBAGF/fbbr7nXve5VzocM9gjIofHPNqV5dSdlrhISWT777LObE088sXwzOxONIQaGthqjs7pktAfaDL5DVTZt4wRaRtTGobUzCs3w+bbqQQcd1Dz2sY9d+wTIKhqxeRD5Cq/ye1UNHweV4+1boT7tEod1xHTgucQx881hkdUb3vCGZUuIAXKn6cROgEnJXnvt1Rx44IFr3/0dKuhvbBNn1XsR8yJ2btVAH329SKTfpwiNW23bvVMxWqklg6JKiXBI+ZRKBpllo26jz4KIqjqHISuQD2P7U4Cb3/zmJbqwU/fn1X0OH1cV2m8g9hk6Rl10bKjO1lBkLTxHJxFEtMunv9DP/RHbC3jtT1EudrGLDT5yTv60UZsFFIx/OxH6jxaXvvSlm0MOOaRMxk00XF/FsSvvR6Rf82J0VpcMAhhlde4oail6mXvLRN22KI1kWQKGpkB1G50bkLXRb+c7HaHFqkL704eav0PEsnU3CL1CJ0dOqmtDdvZHzA48lcL7oYOumFBp6yIiq6sI/NJ/Ns02p0wo8TC6uyrAT98wtk8+e27nxWillowMaIlwUNgI5lD2qWiPdpgppU1p4xCVSJvqduV3jPdORmixynRYpT4MQX+hTa+crwINR/RHze9V4HGca58P85fjO1Uua77BqtIBL30+LBMlv+fF6KwuGZlxEErMtbRp6casahGzkUUgzimHWnKeQXgog/Ei0e7TduzjTgC+JQVbwcvUQU9WdbDpivR1Gp3bxxHDQ3jX5tEsPJvlmYwtAjWSaNyI1QaexlldlB8zOqtLRqJ9lNzRb/tUMiNZ9mCn/rQvcJ6Z0izGaSjQdpFiBtI+XJFjyb4pCmaW77f7bYVzzT1lrDINthvwAq8k/HEMr8JjvyfxNHksXznOytdFRBGGAvrBeQhdQje6QU+iP2iVe9EfyX10dRwxPIRvSdGf8BDfnNe8l0dyj1zETobPOZenK5RLbzzDcR2x2sBHfgM/Jj7OvBid1SUjziCGUvp8wB5iHJaNCJqj2ZJjDMoqGxa0ZVRjiBneGE2/Q3/HGO/AAB6j7Hofwzxi8xBe4UscrOybqhHe13yjf/I6KmdWnua5VZcJ7Q8dffvRiy9oi5boEzsgX/REXjT0fcj6eq07I4YDPMJP/JHwD5/9gUj0JxMT/JYfP8NT171j8Zvf/KaU4zc4ytsVymZ3fbbKVyv6PDtimCAf4esiMDqrA0MYbBAYkiOYNjlK2+Flpcz4HH/+85+X/87PIMzYxhFNnwOG9Pvf/37z3e9+t/xuO0IjlosMqHj4kY98pPmHf/iHNT4beL/yla80X/3qVwvfar56qVH+73znO2XQXJSRXVWgzR//8R+Xfz/71Kc+VegqoSEafeADHyi05JzWzgVH1b0f/OAHxWago/t0acSwgDeiX2ydI375S+ZvfvObRX8kf67ylre8pXz3E++jF3nWF2K+/vWvl3PjAt0T1OiqP23bqs762ojVAz4umoc73llF1BhaxjSJwsXAOuZ3UN9znBX1s5hLwSXXpSEobdqQ/vptxr1ohL6OdQqNcp7f0L7md1d4Bl85qW9+85tLRIGxZrhFFl7zmtc0j3vc49ac0tSl/75/x4gbrBnXPvXuFNS8Scq1+l7y4kVSfjsmdQH+GTQ5oh/72MeaH/7wh+XN2jhN+Wef5z3veeUc0oY/+ZM/KVtwXvGKV5zHOetadxuz6G5dZ1JNh6C+nxS6ts+lPvBs6vzVr35V/p7Vn0n4G0z36McHP/jB5slPfnL5NzH0Bs84lxfN3/jGN5aXZUL7EZMR/oRn6NiG6+4HyQvy555rud4Vno1Nx2vOqs8ncThN2ugE55Xe4Gd4qV7nPpFFX0499dSid673kX3tZUM9J5n8zKI7I7Y3Rmf1XCMgReklSmcZhBI5l2okP8MdJZsFqR8YdYaewaesQ1HYtA/S7/S3r2FcD8pOCtA9EU7I/bShbgv0aQ9Dy0H96Ec/2vz5n/95+evFDKwGWxBVSpkxxI6+9ekluLe+9a3FsR0H4z9EaIV+dXIdD/E1tHVN1CY6575n/a7zbQT5PPe9732v+fKXv9zc8pa3LBOLmq8SxxT/Uodk+dHf0V7qUpdq3vve9xbZiA52rR/m0Vv11DKu75H/ug3O0am+59y12Kxcr5/rAvWih4jZmWeeWRyW61znOiXKKnLGab32ta9d6ImOrjlntxw5N+jIlpnoKc/10QH5Q4TX+BVeoxceOtaQp81f53kmZUldeZ78eGh16d3vfndzxStesXyPFz/xPp9Qwmt/tCJ/3TbX/cnEj370o7KK4bk+Midvxjtlk6++Mjti+2NHj7AUIsoq+W1Wl6gh5THIRXHkqSGfvTquyzcL1BFDpQxOkOVIZc9a5qJRDzLaGUO5SIQXbaMLMWThh6P84YtrBkNIOV0gn+UrDuktbnGL4rAGyvFXd/5Y4OIXv3ipQ/6U78ip0V5/5zriD4EntZMSfvmdwc415+QKkpeM1bzO9Y2AN5ysz372s8Vp8leank07su/SgMxpjaw4qlOUyB9J+Htezq62qT9t74Lk7fscaEfkK4mjoO25Dn7nftqeaxCdqOnfBXmewyGqKnJ6jWtco+gGuimPA4N2HJorXelK5VqWhyXtoTNoLFJny0yfNuwk4JtEztCX3Xde8zdwDX3xNjLhXAQUIh+OUleknm9961ulvDvd6U5r5avPxMXqEx7jPV017mmnfCYxJi/kxQoV2emD9EMb1Edv636PGAE7PhxUGwCG4nOf+1zZME4RJY6M5UTLIPLUMKAx5p///OfPvdIfMRTaAInyMAjaNgTUhmOzjIhy9ZczYYaPBrVhhvDENQYxybW0y72udPMcA618/5ceR9xvA8dvf/vbEkkQcRMxOOOMM4rRBm0zgF/hClcozqqyRvwh8MME8Bvf+EbZJ2oCgHZSBkS8Q2/6JEptIDQw+h3+d+FpZMCg+cUvfrHwNLIDyrD0ry34yqmlv69//evLHkzPaxcnyyfk3COPrqfsLkhe9XWVxSC00W/lsEVebhK1ImMpry6XrqCx/rBhEvr1bTfE0ZHQRLmXv/zli164ljJFTLVB1JqNFJGT0D5tox9+47s+jTgv0BFPJTbvS1/6UvO1r32tOPf5U5hAXte8gEse2CH5fvzjH5e9wXjDFnoGretnN0JsJlkTLPFvf4Hr6iQLJi3O7et+8YtfXPitXXRM9BW/9YHeuq5NXSCvpN2eIb992j9iZ2DHR1YZCkeGwODEQbnQhS5UFMc9SmoP2zve8Y6SDyiUe9nPw8HlzORe8nVBjAsYGBkiZYpc9ClnsxEDqF1m8mnbPG30bAwaR9EA+LrXva456qijmg996EOFFu4n+mBQtkf0+OOPb0488cTmlFNOKeeW4g2IDL5yUu5GbZPXYCofg123xX5UPOXUKPvDH/5w86pXvao5/fTTizFGD8l9Dpi2jTgv6Ig9owY3EWx68ra3va3QM84YmtM9L+TYE+c//1/5ylc2r33ta5tdu3YVR5Jc4D94ZhpfM8Bx7Ay8tnVogzrw1LkBHl+Vp20mKyeffPLacjeYnFjaJH+caOgiT0H0eRakvWyByC7ngIP98Y9/vEyaOaTycEYledCJ80AX9MVvdDa5Ipd9Bn559VPZcZj+7M/+rFzjDGkbG/mFL3yh0BGdOU705bTTTivn8qIvx4cDQ19S9ojfo5ZXEWiyhsZnn312kX92RR40R0/68/SnP715xjOeUbap2CfKTr7nPe8pekJW5CfrnukC+cmruskWuW+D/GmLfawCM/iL75/+9KdLu5RBd0TTTVz0R5ld9QXYAylbDUb8IWKD8EqKXITX+Y3/ue+Id66zG+xB8i8S2qX8nON/bFnkfF7s+OkuQmKowYpDUv9vdpwykZ7MNhO1wIR6bxZnNksjYVoXRNEzu1WvPTt1RGjZ0C7CJ2mb3xH4PgapjZSB/gwxA2zZ9u53v3uh86tf/eoSNagF38BnMH7pS19aNvur3/V3vetdzUEHHVTKkbdLuzxvwGWEo2AGC+3hFBsIvCTCwbnmNa/Z3PGOd1zb16oOeU1sOMnaOeK8MHCZeIhk7r777s1d7nKXsq2CU2NgxTd0JFP0i+MlUnSjG92oue51r1tkQaT1JS95SRmYQX7GeBrw0NvodNHECtTjuqOIq/2slivJmDYdeOCBRY/xUz785WiJKnIagcx3RWSvr25oX56hCy960YuKA2CJ9VrXutbahCm6oK2WYDmOJm4G+pve9KalL2yXa/QkL5J1QfRAimOMjnjETkloK4JmtQk9L3vZyzY3v/nNi35c4hKXKPTzvLzKoxvjZG4yOBGf+MQnykRERB/v2BjbWN7+9rcXWyQPmtIdssse3eAGNyg0v/3tb1+eIRcmevQFzbvKa/KxYSZubCG4Th/YW84zO8mBphe2yTzykY9s7ne/+xU5Sxkir9qYl7C6tkHfjHcZ+0yOIM/31aPtCDKQCaR3LPCEbLhmUk2GvPQo+EJn5Qc6LBAgAMCe1fcWjcid8tlodZvY1nZtHuxoZxVhKQpCMuiWdC3/ZTBEZMKB+PYnyk85DRCA8c4ZaAbZDAaU59kuSF5lc5I5vmatBgQKPxRE2KI0Qdd+tqE8Sb+VJzJjQOOk3OxmNyuGj+IlOqQextOyo32FF73oRYuhvv/971+OV73qVYshP+mkk4qz0oV2BlPlif7InzocGQD8dMRzS6F3u9vditMlDzpIZIBBj1Mz4hygoQEOby3H45l/ZqNHDCtnB+/R3QAlmuL8Jje5SXlZw+Tgxje+cXOb29ymRGVFFtFbnvV46x6eGvDkj347p8uiPgZcMsKZVi++0v06AhiHqz663heR8S6ITqCd9l7ucpcrck5OnbM1BiqypkzX0VZfJc4ipxbt6BE5FXXT165QrqTP2qA9EJqzjZx89/DToElH0I/jb9Lhec+hGf5rLz0Z8YfAI/t+73rXuxb+ohNe0wGTATYwtKcnJg6cWhM5jqGED3FayE6fQEfk05G94wBB5IBOcGLpCZ7TQ87ybrvtViZR8gT4LQ/k+a5o543cjTgHGXMEUOgzfqAZOploWJF8wxvesKZ34NwE1th11llnlS0m0IcvfaCNaZM2WKFio1xbRJ3D8YYmQKfrNA31/fpYP5Pf9XVHxsFyIAfR4EjRERgQOMonimrWKpIgwmHWIC+mGBwZcFsGMIxxiYHpAgZCOzzDIDFQ6krdQ0JNH4hizAL9xQPOoOiAwY6xRUs0pWjvfOc7y0w9SsDBMFvzEgAjTSEY+QzmnJHama753Ya+4Ks60V9yLimDMX7wgx/cvP/97y+RPQOxZ7RFm50nL77vdNS0RiMOjE9/mXgkosnZMcMn4/KgGxkSVTVhvP71r7+mV+5zavEcnzyL3p6ZxtNMND2vHJDXcyK8BvTHP/7xzSMe8Yiy5y4vURmUa511noii+9PqWw/aL3V9tq6f43nPe96zrPhk7yh7wOFme/TTb4n9oJMmBI50Qp3RmyztupaU3/UR0l5HqwbKCtIfkwdtEPnl+NuCIFLOKaULntcXbUQ/zpVy8GCnA22SgM0y0SZru3btKp/LoyfkN8u3gO5WHVwTUZXfs8pBezbTBAWvyWtQ1zUJ7uGL8rSDntWge+TvMY95THPkkUeWyQ+9YYMFGGqeZr+tMmbVGZj1ue0MNPFuBN+DXTVJYQfRWrCMvknkRV7yEl00gb3Xve5VIq+Z6C4aylQXvmsXu0Cm2GBtWoTuD9ZZTcd1cqPOysswyi/Jn1Qb9SiQpLw8x8GhZHG8EF5yzwAq8sbYWpoRUn/2s59d9t1l0DRAKD9Lm877MEe9BA1jU2YEyvlQoF8UQN/QEuZpn2eVCY4Mo8HZLJDBNiByIvABbRxFnMFskfMY2meisM8++xRHN+Wqo0410NwsFf9Db8+ZKGiLQUHEwyAhyuEaOTEwhM8cBW9Fi4iPOGe1AV3CK9sy7FkVERShEYkjQ/KhuSN6Wsp2zvBycJSB1nROlInzhr/yKDsy6FjzVR4GXBnqUYf7+KR+5ZoUmZi6JyqhHjxO+ZJ8dN41565tJTgCHHx2xqqNbUaiWpxWOsFm6CP5JZu2L5lAoSWbZVDTJysBorNoEFqFXo76lt9BHH3RG0cOMpqjp1UOgybHmHMjKqgMThTHn+6oBxw5VPSUrkXHdjLQOjLsaEJhz733JdCdPTPGWCHCa7/REY0zISCT5IPs2iN8+umnl+V7E3j3wmPl53waoh/hOf0MXKfDyhHJjYzZQ26blGP6Ac5NcMiN8/XqHdEP9M4kkZNqaxCas2loTDasYol281XwET8l98iEIAC7SHf9XjS0I3KgfO30mwwvSu8HHVkNNuosQkkUBBwxN8zENASMwZQYgCgUgsofyCe5zgliGBhigmDQvNWtblUYrxyCkWU4EVp1xlj3RcozK2HktXmjvm8VQuMIJJqCa7NAvzLwUkJ7rtBPFI7hNVBbLkaD8C8Oh+gYp1a000DtyGjvv//+zR3ucIdCQ/zTVkkbKW3aHriuforu3MDguSxfZw8eR9Sg4uWCRAQjPwZpxplDMOIcZxUtOfZ4yhH0rdMHPvCBZS+ewRDNzbrRMfJtYoLGtn1wygzYnFz0f+xjH1ucIlA2uqO/1OYpMOaWwslGjDWZUJdl86yEgMitNjKuKZMt4HSJYNBzz0tdkT7NAjJO7kUrRcn22muvMtCwL+Se45eoir5zVjmz7uuLvdsidK7tsccezQMe8ICiP/pEpjNRSF+TgvDEM/puxcnE0TW0z0TOvnKTNLKPR/SV7nBWMliKvqG/Pa2elUacoyOAF5Z12ZW99967TLRFwPASzdmj8IKTKnLpmkmI6KYX6ugK+v/1X/91WQmKrQytw7dpSPkmZuSdA5wAgfY5N1kUtSV7973vfYtMsL+2zOG1/tAnsmELF7kYMT9q3URbjqY96SaKAZ0zOTX+2UaIDyb4JrfsWuyEiS0ZYlsif4uGcsmNYwIGtW2ZF4N1VhGdgygxeBRqEmIE3ad4ZoLZP8rJFNnhzEiYaLDMpl+M9IwZq4GyPSAxyiIbCb9rB0fq4Q9/eBl4/fa82SZBye8MjF2RvCIYBiTOEYF0fVq/txLom35xpBk2SgI5zgJlGmwZ3UQyLe1zJvQfjywhOqcADCcjzpFHc/zlWDLunNR73OMe5RzNIg/al99SbbgplPrICyc09/Xvzne+c3mJwQTFoK8d+MJAR2442/hlMG7Lzk5E5ITuekGIs2l7h0EUT/GMfqL51a52tZLXM2QA/X143sCLL5wg8vCQhzykOGuAP8pwJBueTQpcJy8GWAYejxhQz4g87LfffsUJ5FTZ4mGPrCg9BzDleIbzzOGFvhPQlFO3qwvQg0xbCtaGOAj6TO4k/XJN2ewYu4RWnASyj37O9fOhD31oobX2c3LoLxtV9wVdpEC5sWPknXNv+4Tr8qHdAQcc0NznPvcp5Ym20Tv8zDJy+m2wxFsTOeXNYyu2C9Bewg8Tby/64SlZY3cM8OiHlyZ56C0/28dGorHVHgETk2n79ckxPeNc0j20xnPyYZLi90ZQb5xdY6Rn1Cuiuueee5b24B9n1eTxtre9bdEhbXXdeMtpYjM926XOEd2AxuyRsc4kn+wYbxzZCT4OPrMLZIo/wyl1HW88T1fZAr4Mp3WzwHZIZEHbgCzEJsyDQVmPKLIkoulNVp9iMdsLdHpSx6McjKMllWOPPbZ5wQteUD7pYeC079DbsUcffXS557Mb6oliOUdkUL4BDtM5Sd56ZEi8Gc4AOCcs8qQ9lF3KzKIvtIHwccQM3DE6k/q6DIROBk79C61cmxXKQmPRNG+AcxpA2XjOwbG0xWDnmugrQ81AM9YGSxEBe1a1xZI+5xOfKC6lNRHxvITPgfpFcl0T3XCk3AZoy6eUn/E2m01dDHT4a/DQfnWPOEdvDJIMq7ebGcU6YokPnDHOJ8PpGp7RdffomXsmgpyfOJEMn4ghx8zzBlPbBkR48Kstg3STo8UxJgPu471yOcCeMQnhqEr4RxYAb5Vt4mhimvJn0cP0ryvkRwtOXqL62g2cAfYhjrv2oIuIpnwcG9FnDjnHxTV04GiinUgcXTCBMIhxftK2um+upb9o5M1vvFE/WrB9HBgOKFrRTU61domouWbgpBvq0yblRGdGnENjvMYb/I6coTm7T8bJPocQjCnGNXzAX/klNPfCogCCPAI7viBgn7+/TBV1NRZGhpRf8xr8xhvtYW/ZOM8Zg8gPnrrmvrycJQ4p/TRWeZaTbHXMRMX+yMiQPu1kROZD82n0r687spvxAdAQ7Tl+dDZ8cMx19oJsCKzxQfDLi6lkBe9jw7IdaLN00VgZO2oMJheuLUoWBiNNiGigk8wgKJ1QNiNrYzAgshTGAkIgCGIw5hwNxjqfHuJoeJlCNMAyi5koB+OII44oS43KMlhR1JqJBAPzDZY+icR5YVhE0iwvEo4w3sCmTIpNwV2v29gVBI3C67/6gUAuG+gbRFkifPMIIV6jKYXiNOo/eoqIcRhEG0Tb1KkNFNNA6Bpnx0Ap4Ts5oLS+L/mWt7ylfGaFE+wNSRMWyt+WHTDQWtLEa20BZeK7Os1IOa1+M9SU0RHP81JenOydjhglR3QycNFHcF1UHD1F4vCaMeZQcrgYNgOvAVAePI2h46R6mYfOmnhy0tgHfIaap/J73mDueXJAn5RHtxKp5HRJeOm6+8ARZm/IHodXWdpa68BGIKNklrz10V9t1w5RLBE0tOCEoJN93JxtjgKwMxxCMijqr1+uaWv0gYyKpJhk+/wXvZL8dl2e6HMNfZXUL+qHlib7bBJ6hEfoGJpaWUq98uGpiZ2XxOTtQ4ftDHRFD3xFp8gr4INJMztkMm7Fht7gvy0AbBjnH92Vg97O5SELHEa89V1w1+TJJxXZ2Hp8C9QffuOjqC35xT8gTwnOSHjPPuK7uvHVeKjNtpxwiNQtr7J3ItAaTU444YSin/g6zR74LckTvcG/Jz7xiWVrB9uHH2RAQlP0lV+izybk8piIGjettNzudrcrKzHyK999TrD88S0WiVqOyLMUO5jJ0rwY1NQnCiE6ZmCjmKJpBiaKiiAYhFk1XE+iWBxPSmYgMgMUZTBockwsF5t1mKl6s1EEjuNj6dCACYiLsSJEBgLPa4v7jAHhAMaCw6WNZsP2ylHgtKUv9C0OVZ53PiSkXW0ezAJ9E3VB/wh0FJ3QUzj8VCe6oDsjXyuhIz6QG0bZb7x1LgLLmbS/ym9I+8HzjK6JiAmLqC0exxiA/HkmRljb8Jwyimipf9JAsNOATuTfYGbCSP/oLZ7hna04okWcWLSkY3gjEoTefju6JykPXTmxPi9lMshhM7HBA3x2lDfwjDLwhL6TLQM5uVKW/PKk/PrcZIgj7K938dW1lJnzjaBugwrZ8Ez0uQvkZ0PIvCiZQUU5IpTkl5PPgUZP9kb0zF41dDAI6VvKkTgW7B8d4/zSp0S+0qaadkGuyYeOaK4sA2/KDs0MSnTC7wy62uw5+y9N8lJWVzpsd8RumXSzZQIrJkl0gZ7gk4g2kEkTcBNuYw2ZIFOhvwR0ziSH7Bnj8JnMsFN4FN5MgrKS8Mv4KFpbOxnRm/oof+yl+jjXgWs7FSbHHE7b20wy0AL9J9EELcMbk0sBFxNlUVE+EGcVT/kifJVMnMN3dsC45Z0A+mYyT4Y8wybIp2w6Sg6c59lFoy5XX6XYpEXo/mAkKh3FlGwkfuYzn1mWh704QGEpDwKs5xggiugngTHgcEJcyzOYBsoyMFE2A5roAePvt7ZwYgyQ9n4ZgC01m+0yLtpkFkrICACDYEBg1A0knp9FIMLQRTB2FUCQLcMyrqIClqxEAgy+9gXbe4cWlFGElBIyyJyaLEtKaI2vnBj7rvDV4Nx2ats8UbYkKmRw8LzyQv92/vo3B4ozxCGDdt6dDLojoiYKaLsNZxR/8QavDazoxaAyzgZty94G4+gp2ZDwguFmwOmYiah8rlvuYuDb9sA9PLdMSn8NourD2yD8qvlGhtSTvc+Rg75QpuT59WxVG9osMmX1R6TKW+IcVc6fF63YRDQxCBnInNvTK7KPjkH6TzY5jfKbPHCCvZyjTWxaJgc1DSYh2wzQfxINA/fUi790Q4AATUOHWem5nRB5QAv25lGPelShIz0x8aALtsNwGuVFUzxkCw877LBCUw4rOtfAa/lNKvKxfts9yIbnU+8k1HzEL/qmbXFypyH3tImzSh4XgY3kcejAS9ugTO7YPnZOn/gck/oWnaKbIqvsphfuXvjCF5ZoNZ6KltYBtei4wB55sK/YJAOfjZfsBhuhbHxRt7x8HbZts6Gf2igtSi4G46wifAjNEbG3jCPDGGOSv6Mzi5CvrUBhnKMyODUcFnurDJzuYZrEGbY9wH1RU/c5K5wbTqe6lWMGQwEZaoSXxydvfISecrovn9mONnOMDKTqcL0PwljPMjKMRDBJuLca2pY+ORK+tKtvX4OUSRHRlYHkeBiYOTWMNiPLeDLEJhNmj4ccckiZOKB/Zv4mCAyCfGiIp4y0qJ59YRyAREIjP+omK/LrCwVmENTpnuvrQV34DfJvBp9CI+3MeX1N/9vXpVwP9Ne1lBM4d28zIAqKr/SYHhlsLTGisbYwumjIMXzCE55QXgYiA9EFRzzAf/m9HMnZ4jCZiNq2wSDbGyU/GUjfwjtyKr+JZX5Pg2fJVJb+Z+WnckLnyNZ6shR5BPm01Ussti4ZtKzocBTZp9CGPUQrk+dDDz20DGgm5YE88kpoxbnHA/Iv0pPJHp1Rd91Xvz0fuIceIm1sYH2vDc/iFx2SF99Sdm0z5oH60VcK3QL3Jl2D9nVo9xX8Tjnte7NAObXeoQ96svPkjX6wawIjtiPhOfvlvkQevMxmKxpdMQFD28hWoFzOiK0XbBn+0hljoYituibJNb1pA6/kV8d6shvZSFov73oIvQP0WoSsbBW0Pe03zoiS0022hI3ymy5kkh3UcibpM1/CxNO4yD/JWGfyInFoo1f45DnjkBUZz5AXWyeVwdaCOvg9ns1e481A+iEBOWULtHcR+KO/+R3OPe+ENAaxLK9xIjmVjGmuzyJonuWs2JtlULJXitLqLIUTdeM4inwov1ZWz4bpmIJZFNXgyKhDniE4PqmDaY9+9KPLTAPT1UXBRfUw3jVMZTAYAr+1CwOcu8bY2yeiffe+973X9uu435UG2hyDYdlGGB8dvI1O2PVrViOwSGRwMPOzNMFo4lF43heeobyODKxIpUkA5aSUobu+c2rQAq9MCnJPe8IL5Tg3CcEjkR337QETWRL1NqDHEEbhY2g9G76F3s6nIfnjUG8Gj9CWg0HOGDH7otFGv+oIvnzgu4ecEwYrNAn0m4No1UFC0zjmsF5f+yADs3ZrA2cRP+gXaDfah3aicNqSwTR5JGVJymJoGW/OGz0xCBgYRBTyXAYD5YY/+CLlfD1ob/I59qWJ+tkv/eN8eD71TypLW/GS8+gZffVbO9CMU8pJRLvQxDPKkoceoF3k133PoxdeK48+yG87DFhWZgPZa/oWXknhixSEFqHNejRJu6Q8l/5v9GxXaK92Ar0gB2ywOg3O+pz2yyvqZKVOgIJcsDUBWikLregO26uN0bFpfOsDbcAXdLcNhj2yyqA+7RJNZe+12cTaZEJETDKuyCNCZ1LmnBPiGc/nvqNnlU8W6Ai+q8v3jdMHZRrf0ER+1+lf3U/Hmm/r9d99dEdXab28GwGd8A4/tM0eaYEqdh+6lq0c/LRCR2/4APO0ayOoj+6QRXxOUO1hD3tY4ZkoK10WgOE/tPXAMxBasx8mF4I1bGfuec4YQHfpMnupbjbARJRfxO7zQdgEeQTrUhdbKdprBbGe2C4K4Z+26hMfjKzxi7RRO9ybB+f7XSW/d/U7gBKnUTbzHnzwwWV2b/bnnkbVzOgDexV10l5DTqamMeT2lqrDrPNlL3tZcSbdS+cj5H5TZP9QY2B/xjOeUZjoOicWoy2NMByiEcqLYdV2yuxNSNc5swQkA2Eb8ovcCfMTHBHXtKcPlEO50AxzzR302QslnDOYpdxFQhsl7fBmse0ZXlbj7Of6LNDfvFDAKDGc+Erx8SVl4y2DbrKC1l5uo3zuGaA8Iy9+mXDgNRlhRN70pjeVQd8+RHlFaCkxoDkjO1ToE1kQMSEXHJfnP//55VgPyvrBIZfHUaQy+uOevBwp8u37neiChyYGaCtPypoH6jMQMrj0QtkpFz/9ltBcvxhvdaedyecZBs91yTMGX/fyNQa2gh7bkmMwEMW1LQDIyFZCG8Eqi31qZBOdtRvWoy86+HyRSDF5xnMJjfDJs34z+LG7ztXJbqjDfbQMfdXlmmeVIaGb37GDJocicOpBV2VzXkV1E5EZIvRLW/WFjfcSiu1bT3rSk5oDDzyw3Aut0YjuPOtZzyovW9IPdjoI39iTE088sbywZ/sR2wboMi/CJ20lE2weXUwUTFvJAJ46FwAymcRP9r/Ojy/0wrhDz9g4Eze2kf3k3LCdnBV5TfDUy/4ZxzhRCbjIY4uMyC6g57KARvgG+mp/7tOe9rQywTAOu9+1feQDTbxQbdLx8pe/fFP7pj56DyYV9qqaqHIKTRT4InT2uOOOK1txwG9Iv7UP7+nm4YcfXj5dZ8uHfw2TVx71oAe7SkY5qK4rIw4vGYk9cN2zynXNuzZkhn5H7hYJdbIz7ImyjzrqqPKiqj+3yLaDefVp6ZHVPIOgnF+KbQAyK3Jd5xFXpNSsUz0GpdTh+TAHzDQxxvOcGwO0lxXyKR2OCoY5hrCYqjz1EPAot3vTmKpOz5jJmMkSlLSpD9L/9MNme0y3yT7RqAj3spC+ogUDKMrNiMwTWVVmojwiAhQPPxgaEw4RQobWYGOGCvgChJ7zgq8GGsbab/LoeUrJaWPo8YWyUGi/LU/jGf6i67JpuxHQlhGjGwYvumHAicyCc7ItyoSOZuWZ6MgjuW4gMzFAP/JlcoAP+DoLDydBPfhKj23FMIvnGImIG0y1HR8Nlgyu6yYQEn01kOKN9nOmLXFpJ503AHPU5TXI2lrg3KCNp/QXLabp7GaCHhho8Qkv7M2NTULbSXKW+3ig7eQ0/dBPtogDqd+iymgmOUc397LiQB/RyrPuk3P0RmP7D8MD90R5PIc3nlUXGqK/RGeGithJQFd6rS9kQR8j77nPkWCz3PNyX+2Ipyz50JWcoU8iT3VZs0IddIJMk1VbOrLFjXxrF94JqtirbEWIHNCDBz3oQWUFC784P3RWIIV+u64/ziUviXKSnNujrRx1CPwol6025rmnPbYUqJOTXNuSZQEf0IqNMh6YgGQpHbq2Txlsz1ZFVpXNnqKhVUcOa/YMuy4Crj90WbQzDpvnpMgyGeVLORq7+DpWA+mjsvWLnqIPH4eMklm8VGbKgdr+uS6/sYGMoKd6F20jtS9Os/b60pLJEV9rUTK2tMiqajmoKcvyxq5du4oCMjwYEILK4zMQokpmJ76filnqU04YZZA45ZRTmuc+97llZkXZlY2IBhKGOU5lyves5HdmJSmPgeFATULyKV8bZmWGMrTN85wSEVVC7xuzjJmylzH41tCG9NEWANEMy69mja7P0m881XfKRzkZFkKNB5xTgs5pZ3gMunHSQivO7Ote97rifDHA9nsZcNty4zwySQ7wH09n5ddWInTXD9EU8shg1e0O/dGSc6+/omj6mHzyuO/IsUdzuoAGeX4RUJakvaBcv00eTCQk/MQ7joHBVxQU3+muKLuXKUWWPGsfa77CIR/ZAO3Wz7RdfTm67v5WQr1kSztf+cpXFtn1qSjtDW0jk214Nu1GA3bQBJtOcFw5/I70I9/RFPkziIngymvCRjY4MCYC+q89JnB0iV3hhBn80ExdqdMETpmcII6t5zxPj4YI7SfLgX6wCeRjUpvdkzyDhjUfUpajPrM3ztkZR7wL/2aFcpJSN94KnnA2XENzfONMaqNx1VgoWozPHB52l9MhWMMplT/yZTVJBEtZHBJykHaHz4GVRZH8Jz/5yUUHlVHbzGVBO0PzU089tYwxqxBZBW0XdPGZvOzT12ZyZ5VJhBSPRVeNY/KTN7SXzyoRfhu/vGiK/0996lPLmMaXIY+el5dOW2nOZEQdoI/pp7JDT7ZeoI+8mPDjtbRomqgrtsO5VVfbFshagoLzythSw0oIhnCMvH0qOsWo6qwU6KSZpVmi5TIKhzAEUxnuI5JyMAYDDXIGZDNXRsAsMoO45xgMys/QM1LOKYeZjfIY//UYmrarV5qH+Z7N89pGwBxT9rKhbWkHZw994jjMCuWhsQgCHnHClIv+ZsUcGoMrR5QTY3ZKJvBP3ZTWswwu5wY//RZZylGEIr/l8zvtn4dfW4XIBTqJCGl/ZC0pv/XJwEbmOX9tyEde6UBm6+DZRSFt0l6JDEcnDUAxmIyv/YGWybSVYaXPeG6AYfBFDV2XYlxTrr6mPvA78pR+bSX0UzQZ0kaIDVuPxrmn/+h02mmnleiHCBx+W1bkwMvH6c+kBV1FDe2Je97znle257BliYrKT5cM1gZDA3gGNu3Vtjgq6lY2WntuvfYuG9qGxxK+swecPv2YhNxnAyI3QcqKHSeXnMVcXwQdlCGlbrQ3zljqFum2XYess3F0Al/wgQOKx87xFC/JBj5GZ/AvR/tWXee05zlQb3jtaEJEz1xfRP8WhfBBu/ABnVYF9EeACY0514C2+CEqbguaMcoWR3yp+2asF4U0kRcFZh89IwqPT3iJb+iCRsYBX1pJhLwG+knqjvyyFfwfckYXNpPnqTv1gnYsCgu37AjbFTGaeWvb7N5SlmvtckRSbdbVeZEAyutcPkICGC8Mz/Hh9GJOECbJz8gzDl60skeEERC1sLxt9mMDfJR8GmqmzyMAaEDYgfAZUMJg/cq9oQBdFoE2zfRZEkUwS6VgJhwSPtqrLOpECTwrH9qI6tvfY/lraAZ4EejTnzpv+3yr6JJ6ojsZTOOoGpitnjDIjLdIb3SA7HOafKIpn5yC6MNQoX1kTz9ERzgX+pJBaaP2M/JsF4fDswa8REJNwuxhYyPZRjRBY8+YdFhaFFGX3z31or08ymQLRWhsBXAt9xwl+emUgVV78Su8Gyq0X1oEFlXOeqjrIO8m3onympBYQeNk+jwfp4a84EPkhu6wb1aYRNlNvEG5+Mex9Y1NLySZ+ENkr42avyl/Wt6tRE2jreDJIsGpxDcRbxOjWn/os4knXTWh5NTSN/YOz60MirKzifQdTNg5pVZETILxib6Tl8iMZ6PreFrTLHoM7pv8qtN1tjj3Fgn1t9vA0dbP9r1ZMfcooBFhTt9GeU6HOB4YIKyNqBjsWIPDYhCzRUCkwey0TXjR0RhuSu2+VAuP9mEyY8G4c3oJmLJFdCytaU+t1JsJgkgA1aetBo0MeOqPQVkWtIHg1bTQpvB5UTSKwTRhsYTAgKOLWTZFZww4q2gkL+W1D0ekXTRRBDX8xt8230dsLWIL8MmSleVJemtPNr4agOkZY0326Te+2trhJQL6zyDjYWRwqKAP5JRhzt5pjiJYtZk2OOiXe5LnbYsw4KGFgYpMc+rJuD1sHHn2DV3lYSs4sJwY0VNyn/K0gRPj+6zsnPIz4Hle3dqdLRra7X74NmJxiP3EF3yzhcoEgvxb8kV//PbbFpLIfMYG5yZ5osP28OOzMpVnzBNdN365T288s+xxow/0r9bvRcnfZsuxdvNfBLr4L7bRgLGnBh3msBrDfC+eztE1ffbmvwlpnsXT8I4PwDcRTcdjAbYE9kx42FL5lVP31blrUnRaWx03UzbCR0eJLKp/UZi71TrOSGuko0Z2gXyetSyBgT5VYZ+mN/hFykQ8vfuVo3TMMccU55JD6U0zUdQQB0Mx3jWzS8KTetpwz94fjGbsRSc4iGmPaAQiL5LQ6yHCZfBhcPxOGgLQKdAm7ST0oN2LgHLRnyG2z87SCB7b8+O362aZ+OlcXs6rPYIisVFy7WEs/CaPWUYZsbVA8yT7Kr08YNnfy3MiSPbYcZBEmvCJTmcg5rAyyJ7FxyHpwiRoJ30wuHAwOY+JfGj/RjqS+5bxOer+DOD0008vNtGAlJcI2SY04/AAeRc1sQ/O/jCDIKiXE0NPReTQLlEObc159INTa7VJcn/ItF41oGdskkQu0NseVFE2ts25rU/y1RM0ifzgtwm7MYr+mAjFiTXeiZob0+TzvHEr9hmGrj8Qe00G9Ylsz4J2Pzer33glsVsmkt6lofuhdfgHdNQH+0XErSYZr8gCPorK6qtxHw1cNyF1XeDGMyb5orJ8I7bTPnPBNi+Si8p6PnWB3xxFiUxI2uQ62ZiVtutB/fgH6JJ3KzL+6tu8mKvVaUQU0bmGdgGCyY9xCO6TUV5K8MmDo48+upxLPvfht2XgY489tuzrUpclM0KiDA6Nl68wFOxp5dgy4BgWhKEGFYbcfc+bvRgIPGegEY7Xj81g6iREkDCWQ0YBtIdguTckaCP6b0a7DMoU0Awyb3mjB9lAC5MQfLFdQxTCiyb4Zz+k2akoFtqRKQquPBgaDXcKot8nn3xyMa4+Fyd6iJecMKsfVkE4qT75ZOnrcY97XJF9UfPoa4zgUEG+JP0yMBmE9AHo9Xp2JDaUc2kgYptEYry9rd9knyOCVskPnnHOjhkYOLN0hb3LBCAv2tAJ25vYUZMA9wxgHBqDpLLtZdZO95Q9YrHIGGkCbm+qSJuoN33giIqu+oKDVSKIg4FHjnn5y2SFDY4O4ZUJSWwyHjrW8FzkZshg2/XHZGvI0EYJnekt/aI/eER/JDySXNMfkVM6LcBivzK+ui5olgAVONqGyCHNNqBsbeSvKBu/2U2BO84vWWn7Xcpvy8Ik2VgklE3O1K2/tm6qky1cRL1ze2MYYgkjAqZxXYDZOsHYeutXNNUbit6Ck57ylKesnbvu7UDJb3k9Q0DUi1GcG9/Qc9+RAUagmkjOtY9iEzAzGEtk2iAy67c9ksrLVoDNBuaqj/ExizI7i6CB82UD3WJI8JoCpn2LEEKghJxUdLdEhg+i3gy4uikrh8d9jqhogj3MjLvInXZQZpMZ0QdliVJp74itB36Ikvh2pWiPQZnTleVo17z0SE9NOg28tgtwsDitok6JIGXgHjrosjZzGMmqfq5nD/VJ/wxMnBj5fVUFTci9yRrZ93KEbTH0r3Y62LEMmpwdTr9lQgMoGtINzo0JoHZoG+dX8oxrGVzVrS7tWQVarwrwSyITnAsTa7+9LIzH9CEreWTGGJBnpPCcQ8N54bjgMycGn41f7nt+VRE9IH903YRPn4YKeqO9fAYrRrZyHHnkkcVn8QUH37l2THJd8Iye85eMS/7IQl+9ZGfMN66hg4gqW2AywyklD14uNxbyU9hI9GFb6S2HUFvWszNbgciqdjjXHzaJr6B97s2LuXqIuAYdSubYZ1DRKQpocPJXcj6DhMlPfOITJyYv0kQIHH0OwrPKEC7fd999S1TG33E6+gs7ikwBaiAkJluKsWxmZiOagfkMu/yMioEAkTcb6gjdtI3zre4I3xCUNjxNW9Bo0e2iyPkHGUZZtJuiMsLOKbV9jpZG0cj+ZkYe7xLJMghrm73HZrHK8zmREcsBw2tiYb+dFEOGxyaajLBB18qKvxf1AhZjjpd0lKEzqeTMKktUQt6siGQgH4KOaEv2lGoze+Ia3Z42kGg3/Sf7Bi/Oi0GJPeXEkGX3LfMb0Gq7UNtZEzs6IqJq76ryOLdo6LeVJ999ZTPVKdJt/xzdMgDSp7y8CKvs+AwRkXl8sNIgoopf5BtPDepsm7fBjaP47rpn8B/PTfTYRb/Jvy01lp69iErG6I29zYnKuW/CRw4h8lLLzVCQ/uoneVxkGzfDNiiTbpk0oLEjB9Qf0Eg+12SCmGTCblsPvomig7FKOXi6xx57FL7ZxuizVCaZPgkqAIcWeA9spoksOpEjcmMLI6d5Ec7gPNAXbcBLsogmxmXyjKfkdl7M7Y4zcBoDBK4r0TCBknke8fsIaPJHkZWTsiTn7jmfZHg9I/Lgg7UUXl7GgvPLQZIICoHcDGGvgbnqSP/Rrw8dNxvahV5ohJYcRHRFG3BvETB5IOAmDwbr0IThVZ89P5SAguKNPJwakST8phQUn2J7jkyioQF8xHKAN1JkHBgwjhL9w2sTQ5FxBhqfRcI5fXhJ3mz34VzZDsRR5dQZAESY8BmPN1tHN4L+aQeZ0w+TZHoS+zStfdF5Di6dt3QWXeNAeqmC01l/DieQT6IHti6hmSiPlz2UYxLnvuiMibs3jNGXDilHHY7q1f5a54Zie7YD0BMf2EtOBR6IhmWMog8mFKLnVh/wAk88l7HL0W9g8zhGtjixg3EElGHfqwifpWFb2nbt2rXmFEHkdNn60ob2RPbQA53QbBZsRd9CQ5NLgTRbbHwiTvKpOck/oiX5Rrx72cpoq6PPT+kvvTO2+byV3yamXjAWnMEvdKDbxka2wKTfb3bRJJWsmMwvm6faSaYju2ik/ZLfi2jf3J4G45dtABG4Puibv408P0m43XO9XQeDYYZiRmNwQVgG3xLc3nvvXSI8nJ9529YVMSI5r49DQE2HGNBFK4fIkVmniBLaM8Ai3f7JxHJxPlumLfbmiUpQWOf+jQX/fIxZRFU0wbKyQcGWghHLAZ5wStkIMMD67JxoqtUUy9yMtaUtDluWOBlhxpueOsdzPLU05t94bPOQf5LOLwPaR14Za/3hmLCH2p9J3STQIcnk2CQrk2Oybc+uN35FQ60cTTL6dFEd6uXEiPJwbEVn5ZXYtzvf+c4lkkeXRGQ4r/Jkic49eqcc5Q+FrtsB6BkZ4JCycaJomWh7z4Jz5q9is+1jGthFzgB9srJEbvxWPl7jm8k9Gdh3332LTLGhZFG52kI+TVyGNL5oNznUJm1d1NatWlcWCXqnzSak+ecwq3mS6Ph6yQoHfSQL4Rk+CZQJnJnAc4LpIlqACb2orK0j+MdXYEMttZu8kwF2YNnQF+3QL8EG8qoPri9C3mayShECREMoSWM0cshIu7U1hj5tdk5ozFTdl5cCbXafIrDqq5Vr6LRcNCg+Qy4yZND1X94iCGSMMWCYKap/9BGZs2Tis0ecGgYD7Si4JPpKSe50pzuVGeqI5cCgaEJIlr0UJ1KIZ/6lJf/ygue+EWmZ334+g6vJh4gg/WPwRBLsUSYjnFkyQU/jBNR6swyoP3ZQ27K8q9/rGenouJclOOz2W3MobZ3wCSODmkFMGRI7kWfSZ0d64aUsn0SSX1RVPin50N0eR7T3mSNgA7WV08RBUMdW2LydhNCSPIiKmXjYDiDyydaRZ/ZLNF4e/Kr5VkMe/LONwEQ8ZdMRZXNg8NQExTk7aH+jc2WTH7/ZRL8jm8vmd9qhffpikjup/32QMlPOvOXVUJYU/8exT8rkXRkZ+/FAm9k0ZYYnrrF1HFVL/n6bWArC+O2lY7ZxCEg/HAWR8luf9XNezFSCitMADp6ZOSGjKMsW/PWgbYwxx1TSfikGmqPD0DtuldHGUEA7CFOHTMfNgAGXU0oJOScGVjNMUSCDOX4xYv53OX/ta3bqN6eIPFry5+QaBNyj5F60GrH1INe21oiI4ys7YaLhL5BFSPGbzDO8IgqiEpwoDpqj+8ow4OKrZzlWJjIMoX2hEgxBV+itdhiIDDgmS4l4RcenQfQZnSwBknNOuYmWF0WzncD1oC5PvZb9/QU12lqhYMM8Ix9a+Sa1+6LR9r1ZGs7+fHQ24Im0yh/7M2IxwH/jCVuEz/vvv3+ZVIiiWsHzt6D4bvysx5zwr4ZVhsc+9rFlrze9oT9Syndu0uIeXovIuZZvt3KCTApdz29Q17KhPZK2aH+7713gGTINxgPnOS4SeISueFb7Etq+XpLHc3kmfkauS66lPOfqsPzPFtj2kbxWEL1MbjsBGxG5WSa0IfRO3yTXtXte9C5BpZIGGIwkS3SM8ywCttXQ7ghIjq6FoBGaEHkrgG7ox3jUs66dBDT3soB9W3Fe7OVh1Ak+XsjDMeXMiKiKIhkA0E3yzUKf55F8ysw//+TzVSO2FvjF6HKeOFN4Kpl41Pykc/KJ9oi2ih4ZrFKGiLqlf/cNyCJKymQUGXJ6smxd0Qegw2TQvjt900Z2ZCPIK8LsX2xE3tBLfzmSns/gZRAg5xl8Uy8bbPCytQlcj+3SHi93WP4XtbV/Lv+UpWx1Axp6Th8WPbjvdITO5N5kgYxbJsVjUdDsL8ZnfMOLRNhqkHfPmLQr0zPK9Yxz9pDz4hq7KVpPV+ic+8oVQTcBzPN4vWx+a3/aoN8iwZHfvkifAL3RwjVYVD+1rU3/rinP1Mckv5Uryeu3xO5lci8f6JsoeSazub5MkC/tJsfaFjvPDi4CM/cQcQi+qEeUDHJcBQyhrRiMmY6E0eCc6zsN+IEGIvWcUEfXaj5FIRju/I4ykEkDPUdXtILjy4CPWD4mGdM2b2vknsFdZJbxw3PbCuzjNBDTFQPQsnUlMkkO9ZOTYQAhy65N62OQPmRwnYY4L/Irc1q/3dMObTC5s63Cn6vYF+mlUnvnDHLaxjHwJQAOTModsXi06TqJzq5JJmsi3fjXFZwZ/+5oOwA5MYHx/oXJHWeYrChP4vwIisRuLhv6rF2O2m6yNwtCvyDvNgTLthNB2li3ddUR2kuxeWwZ37CPHK+H3s5qGO5IqCzZOmccNXAoArEqCFMNVGaV7U+NDA0Z0NK+RfG77i/hJk/KRpM2tMF9R3AuebEg3+a13MbJYbxHrB4iDxxU0SH6wfAZhOuvPkQGlok4kSZX9pGJjnIItG0jQy2PxAbozzR9cl2EzIsznBl6MS1vaKdczqqtFRxUWw3sD6YnnpXPZMAEwJK034mGjNh6xN6xWSZkeNMV5MxnHLONzTHRecBTNhKf/TlHrkcOlgltiCyTbdHm/O4Dz0QXndvyIJjm2izljegO9A2N2ezYKJMFcrcIzOSsZoCgTHnzFFwfhaIf0A7NHBkYA16uDwnaaMYkmm5WHhlY1OycQBuwJYY3KTOz0MMxM7YkioF2HARHv0Xd0NL9EasHPDfoSpEDyTlZye/cXya0g0ySP46gPYnOtS1O6DRE7uVxPi2v65b57feNXK83CIR+oZO8bVqql/NvFYIT45r767V3xOYB3fHIRExElAx1hWfxr7aBfjsPv8mA9wB8SSAyJP+y+a3+yGV0ZhY/Qjn6KCnPaowtE7V+jdh84J0gJrpLsAgZ6809lZqp8JgJBKWIwI+O6mygRHEG65nhEKAdHFP8jcD5HWd1kUgdSTE6bSOT++6BY84hz0nyjVg9hP/tFJ7m/hB4nLYAW2iAhLqt05D7dZoGhl/UwlF96+WF0CxJfsfcy/O1M7NRmSM2D2xteOTYhxfytnWjvuYIrpOh5BmS/qQd87Qnz+qXfnJ+wfV5yh2xMfgvZJgP41+9fDs9MrYIf6G3s6rS7EngsAqz2/fkei1wI7qhViJh81n362wm8JYQ4q/lIxOUESNGjBixOMRZDfweMTvQb6Th1iG+DOcU3eOgtuV6VswUWU2o3pIw79myxaK8550KDOUMLjJsvhnQLnwOr4fazhEjRoxYJbD/CfgkjRixCsjEgB+YFWKyHL/QvXnR21kNNMLSkWhgFGzE7EC/2lgtgrmLgLbgdfjrHOJUa++IESNGjJgfsbfSaFtHrArIrZSX2bzX4px/KC3VWY3zwmtOwzRoKE7WqqCOUgIjNTQ6hteQ8/ZxxIgRI0aMGLEzkckVn8AfGeRl8QTh5sXcJXCuskFfI0fnpR84pZxVdBM+NwuZh4YJudcpDnH7evveiBEjRowYMWLELMiqgK9Q8GPiYyzCv5jbWRVR/Zd/+Zdy1MjRWe0PNJPMPvL2IlpCH3riQf4Jq504wZzh/ENNouGu+T1ixIgRI0aMGDEL+CwJgvmTEf5F3m8aRGRVI0RVF9WgnQY0w1yM9amN/IPVLLTk2MbJTYRWOREijqprHNXUy1Ht4xCPGDFixIgRI0YEfIgkvgX/wx8c8TVc83tezO1dxtFyHNEf6CZhqA/pzvNf9sqJI+rzUiYQHFXJ9x/NctxzXX25N2LEiBEjRowYsQjEceVfJGA2L+ZyVjWG41P/KcC4pNwPYSq6YarUB3F2fUbs7LPPbv72b/+2ectb3tK8/OUvb175ylc2r371q8vx1FNPbc4666zmy1/+cvPRj360Oemkk5ozzzyz/H+y+keMGDFixIjtAGOisXQc27YW8Uck+1Y5qYtavZ07sqohIquOGjiiHzARQzn9oqEXvOAFz72zMdA7L2X99Kc/bb7zne80X/rSl5pvfOMbzfe+973y2/8jc1Lf+ta3Nh/+8Iebr3zlK8Wp/eUvf9l885vfLE7uIkL0I0aMGDFixDIRR8m4aJVRCsZA2uYBzfkR8QetEoNrfJylO6sRDA3RSAKyiEbtNCSiGse1C6KQ6O65i13sYs3Nb37z5ra3vW2zzz77NAcffHBz0EEHNQcccEBzyCGHNI9//OObe93rXs3tbne7Zo899mj23Xffkvf85z9/KWvEiBEjRoxYVRjH4pBymPy7pn2TEF9lxOaBH8In4cv4dJVth3FgF4G5I6txsnLcTIHQ6fU67l5df/InRZiloL5W52lf75owK05kyt8I6DYLUrbnhdwvdKELNRe+8IWL43rJS16yucQlLlEitZe97GWbm970pkWALnKRizQXv/jFy/+XX+pSlyp/n7qI/SR9oN01nWt0odc8SN31eX0t6JKnjY3uB3VZ9TOTrgXtfNOea6eNUOdb7zhrmob6Xjtvfuda+zds9HsaJj2Ta+3nJ11v55kHypqnzmnXhwRtTOqLac9Ouw6T8k7CtOvTkPyOdWrbsPb9Ntr3k6c+D/I7dXRJkGON9v123rof9X3I70n3cwym/W5f3yzwQ8CYmPc0MhZvNM5qY52CLuc1Jl13LdcnldG+P+l3jfbvRaJdd7BRnRxTedD5r/7qrwov/H28Y3gwD873u8J79Vql8Z4tOR966KHNnnvuWaJ5GpmXejaCcixRW77+9a9/XTqZva+SmZGyhPGVZ5bkcwie44D9xV/8RSnHPcnz3/3ud8tzf/mXf1na9+Mf/7jkl/JSkeSeiKJy/u7v/q58est15TjKL49+diVP+u1Zy/m3uMUtmitf+cprZSl3I3hb315TS/YnnHBCc6UrXencO38I7ZL01/E3v/lN89WvfrX51a9+VWjKKdUm/QMOqjb4zZn1F7m+4sCR5eRS6i5t/OxnP1uitqK0T3rSk0rdXZ5DB/0DXz3wG321IX2py+lS5rwIb0Bb8A+0Beo2JK8jmkfuAtfbfXAND2pMolfKDh3SJoge5Nz91Ms4pB1o69iuL1AHpOz12oEWUPdvGajb2G7vpPZvFtqyod5Z60djybNd6buVfd0JiN7UejYrojOwnmzQ3T483wjtOvzWL3Z8s1Dboq6I3YGu9D799NObRz/60c1HPvKR5mpXu1pn+ZePrtra9uAHP7iM78ZTAZnwZb02aKs+yoNPabvn8qyU3+pKHnRRh5Q8II9z4xw4xydQF18hUJY0acwAZcc2qyP5U+8iZEtd6ZMyIf1x3Xmu13A/XxtyftRRRzXvete7yvsyV7ziFRcim72d1TTa0cs8hx12WHOjG92oecQjHlGIrDPSRtB4js/b3/725gIXuED5ZBMhkzhWIby9D+rzGzGcYzJB5GSp89vf/nZxZhHqZz/7WXPd6163CAHHjOMqv2e9TPSv//qvJQrJMVavexGeMIXz6lyb3F8P6oyCKFO9lMMS++Uvf/lSnjzavxFdtLGrswqhhfo5qO95z3uaH/7wh6X9nnXN/lR5rn3taxd6feELX2gud7nLNZe5zGXK7+tf//plFrTZzqo2on94iBahewwDXubPJbS5S7l9UZetDerVh5pPrtX3Q2Ntx1/X0k7w2wxS+z0vr2fIWvKhr+uO7gXuua4McuNeygM0iqFznnyWt7SZzKlX2+Rz7h55FGU3IaRD9MWzJjXamKiDe9qpXpMYbfHbhMK+Zs8o1zEyLMkf+jh6Ln0H59rrHmirvEHoC8qXV5naD3lWOZB6PJdz9zwTPoB6tCHluw9pe53XNb/Df3mVnWuO0Wf2xTWG10QPZjG+2pa+/uAHPyhf/9AuSNvTVufpi3vpc9qW/MkTWXN9CNBebdJX8um3NK192g4m3OTShNu1JPAs3ZDwhU3BB+fuqQevomeCGuxhZFpghF33G92sMMnvGl2hF/55hxx4XvvlVf5PfvKTks/98AfUSee02+RfPRmPlMm+usfmkic8zyd9PKtNbLFyvVNAV9lo7RZwobPkTl88o13kwLN+5yVZcqVu5/rvvraryyobm0C/PG8MdF9/QzfXPasMcO669nsusor26EMP1Ok6+uiHIBAauabNnM3wXZu7YBHO6t57713aZBzVpuiNdkyDZ/VHXegSHrmuv2m//ruPtuAZcqJ8+dyLbOCD8yR5/vRP/7TIN5mRF23di7ylr3WfQwNHcB4ZBWXU+WdF2qhstEI7bYJ2+2rkGffke9rTnlZe5n7Na15TfDDXY9tnxUyR1TTs85//fPP0pz+9udvd7rbmrEIXofQ8geZcUlJMw0CMz990IRxlkZdjCeqWxzWEBEpCcBgCAkDxtSFlRVAInyPChXiEKQKsbAmxla9NkxjThrzK9qz8ntO2KKnr2rOeooC+9omsqldyzmAxiPqsj+qP0+I3xXUNrRgq/Y7hJYDThLCNWZ3VtNEE593vfnfhe2hGeRlEzpE8+BIeLwrqwZeLXvSizT/+4z8WWkVe3TNooQX6aFdoy3Br389//vNyz0CS/qbv5MXAQv7kZ8TRWqQ/gwD66hM+xBH1vOvuZ1DwrLaYaP3iF78ovNMOMq1u9ShHW+Qj967pVyZf9AjfDZwGWOfa455+k0VlKYfDpH9+a5v65FPWj370o3KOTtrgOW2Wx7UclZP++R2aKM9R38hcjH8MuOvqcV2bI5fKkY/8KgNNU44jPfK8vJK2kRvtU4Y2KkN+5/IrQ17Py6989yTPKg//yAiayuNcwhPOh3Lufe97Nze5yU1KXVJfqEfZ+OBLHVanYtsgbZcvtNEe9K3lVd1+6yN5ck3f9WsI0B6DFJk2gc4kqQv0XdJnz0SewjPn7ruHlvLhE7pBnRfPneMx/uGx7VCcQPoVGb30pS9daEnmtZk+eUFVmZ4TeLBtipwCnQsvv//975f+yes5jqZ7ZAb/6CEe0mFH9odeeoYNNkmkn9oqwBA+K5ee6+f1rne90tbYGX3SFn33oqy+KkNdX//610tfyC0HWRnaRtfRSZs5kmwaulgB1CZ1q4uuoJH7kjLkATop4KGtrrHjngvPtN3z6omuaKty06+NMKuzCtqArg95yEOKTTv++OML3ZSh39oxCZEr/JE+85nPFPnAe/foGP1CV7JDXhxNIOTDd3aW3UYbfFev6/wccoUu0s1udrMyNqCdfmlzZNl99avTNffRzT08jI57xhH/HNHbtXlhDMxYoMzdd9+9yFTqRA/nk+A+GsJxxx3XvO51ryuR1atf/eql/WR1HvR2VjXII9IZZ5xRPOj73Oc+xVnVGNd1qAt0DPPDFB0CzztXVq5hYq5pQwjnN7iHuK4pN9flcw/DXcsx9eUccu6oXfrTtS9RRELqnMAqX/1+T1OSGurs46xGMLRZPaAe5bgfQy2ftuRcHoLvvv75HR5shHmcVe1iOL/2ta8VY60NaEM5RFEoepzI8GZRUBb5sJdXHQyIerQdDTh+6MFh1q7QywDAmRMhMVCgE1q7J0/Kdo28uC+KoT+2ZTByynM98FxbrpTBEHnOYKmN6MEYgTI5L367py0GOYOMcwZFH8J7bZHfgCY/qDN9lsfA456BKQ655wEt5IW01dGzZIg+RobIfIys36CcOMTO9Q0t0AEf5HVPvdronkFYPm1Th/YxnspGX+WoSxnyq8tgj561M6KN8ilX3lzXH+UoP3Vog3r8ZqDxW9nhkTLU757faOpcWelrHyhX0j4rQsrn1Kk/cE8btAW0D12k6Lk+6ps+KEOZ2uX6EKA/6IN2oSfkuB4in/qK5uEbuK4MeVIWWVcXWriWPJ6Vzz00ArKHbmRJmaGjMoCDqb7oTsrxHP1yTfnkxnXl0D/I+KM+ZciLZ85BWXjrWWU4d4+eaINroE3aVtsbeuA+OfdM6kZf15SlD+RcH1zXDr8j53TOc9E7v/FG/erQXsf0X7naoBx9d08bOGXy6K9r6lZWaKjN7nHkwhf3PKNvG2EeZxWNjTH77bdfcRRf+tKXlnojF9o2Ce7rC9qwg6ecckoZI7Q/fEK7OHEcVLRll00qrAYbI+RHW8/IL6/7eGU8R2PXOfhsfWyJ65xfNl1bosvKwUs0lCIrkb9MotkK7Z8XJjhW5PSNbBgvtTO8XQ+hH+zatav4MvwYq7dor53zYKbIahhv9sFZNYPaf//9C2MQsmujlKGsnOe5dpP8jpClbsDMnDtGGZzX5ULKroVenroM8Nt1SXn1vfXguTybtqQdrnehCYHuuw1A2YH6/CY0dZ3O3UsCR/dzhLqsaZjHWQ1d8xvSNkc87lreLFB2+pz6IfWlLZCjaxKaTuNh/Yw89TPtMttl1PXkGBrVyHPyu++IXqFp9CP9g9Ttfn3duWuMn/MYouRlcGKcpc1A3cZpkGfaffekeduXcmr61wjtaqCbfKF5X6hPucpYr/0136bRYbtjo75Pup9r9b2alqF9EtTP1M/V1/K8FNR8zDPRn9SZMvxO4tTkmjxBfT4J8tdtgbqNKVP54BzkSfsmPZd6nbfzgWvKyr2g/l0/C3k+bUaTLpjHWaWbHDhfweHYHXPMMcXx0wb1TytHHUkpw3lsbJ5TBtqaQPJ3MhkzKclkPbxl/x0zSTDhIBvKd81EW/nKdo3Dykn0TNrqemTJ9dppdF95roff80A5tRxI6tXGjeRSXm2VnB977LHNG9/4xhLZ3m233UpbZ7WXwfotmIB0QOWOiIVpfqeDXeEZRNAJDHGe33UK45Lfbyn3JEx0P+XWz0p5NuUkT7u+lI/5k9oyLdVlej7tSJ2bgXZ/8lv9dZsg99Neefyuy9hMpI6ktCNtSJp0bVFJ2erOebsNuVffz/WaXu2UvMkjP+T59v065V5+17Spk+tpn3LIe87Jap2vLit5HOs8jvS2bfxcZ4DzzGZBXdJ6WO++e4toX8qZ1p5JdcxLG/Wg80Zl5P6kdu0UbNT3Sfdzrb5X0zK0r+/Xz+Re+5qxLedJZCE6FWQsqq/nt3sZL/N8Xd5GkCfl5pmcu6682nGp8wTO8zvPBpPy5VrKaV8PJv2W0ratQNrIN+H8cZ6cS+uhbif+WN0SYRQddm71QxJ55HSKNjrnXIo6O+Ye+ivDNY6y+6KteO+aKKiyOLjyuu5cPkd56uuRGXZZ+5K0N9edz5uU2eaZup13AVqLBOc5q32i2/TGvXnRrRUVdERjzBoQUkeErzVyFiivD/rmD2Z9riumle/6Ztc9D5bRtiHTY8T2RD2J7jOhnoauMryIuoaI9Gs9um63vu8Uu4VvfXiXvNOeQbetol2imfwSDlPfvmx3bCYt0FzCAz6irzfZP7zRRKErejurGkPwNMa+lswQILOYVQHGIaw210x0TdKfhNnbyTP1bME1SHkj/hDTjNZWGbI2wsecS23+5bpUw2/5ktr3RwwD4U/4Sp/DL8ca4XOe6YPwP8/NWs7QEJokgT7F1kuux2Y6z7X6mPMRw0Z4VfOs5mU75XryLxsZY7QpiM9SX1t11PSfRPfcr/NN82UWCRMEUWH0zp5nvqI0L3o7qxDnwkZrm5mFujVms5cONwOYFWYzwDZV2yht/6h9JVI2nssXoyzp/7e+9a21l3JEl3NvxB+C3ERwJ6WtBt7jVXidyUcMgHuOk5TabzxPigyNGA7wCE8lPMJnfHKUXKv5it+u1XzvAvkiQ7U81TK0ioiMs2v6ZOCpbZx7aJv7rtm/l3P3Q0/XutJzxHJBdvELXyU8JsPRiZr/SZ4ZCowz2ueYLU3SdpK/2Jb0qbYxzvHMfZAn9/GVjroPjougC1qjMWeVPPj6gW0UgpnqXATm8iwjpBGGOLGrgigdYCYCv/Od7yxv72EgRnpz3Sdm3v/+968pQPLL460+3xNzL4666yl3xHCBl+EVZzk8zTVHPHWdrEfhIfny3Mjv4SH8zWQzPMNT9ioRgMC5fAZo+fqCvfBsvjShjLr8VUXsfPQDEkFxpAOx//KgQz65hNZo6hj7OGK4wCPOhbfdM8GIzkhxcsB1suETTOH3sqEN0XtyF/3bbrKnX2ivj9mbG+grOtS0yBHorN+xiYtAylE3WyCAaQuAtrm2iHrm4qAOIwijFUFeVOe3AjUDvd3nTXdKZ/O06+4j+FlnndV86EMfKv3TT9eTbCD2zbRPfvKTawIjjzRi2MDjDKQGY3z0KacMvBwP/GcUyHnNU/nIizzySyMmA52TNht1PY4GXV8toddgAKbrvk1pr30NsuCe70j6fA0ZgI3a7l4GB9+49EcnZGZe1PVu1IbNAhpYQfI92HzWCZ2sJn3uc59b+9dAyXUDIRqjA7sJy2j3KqIPjxcpD3VZeIin/pyADLN5lnPx8qMf/WiRhThBYHLi29nGP5M0SHmLal8faL82aSNZXEYbtgr6iB/4VUe29d/vTDbAb8knI/ELb+OvhJfzQD3KVLckqupFsjjGi6ijt0elITHE3n7zXTC/NYZgL6JRWwnt1X7KSEFvf/vbFwdUP80OrnKVq5RPTIA376IMnvFbXh97/sQnPlE2FDPm21lBthOiWJTawCtCTqHJBD5/6lOfap773Oc2H/jABwpP5Y2Cc2JF20XiPTNOTs4L9EJD9KrpttkIPyUfo/evbpDvE+KbT8P5m+h3vOMdpV2Stmoz3vsY/Mc+9rGy7F33YRqi7/LZFkSWYhPXe24jROaC1LPZCL/0gaOCFpzTfPeVrBv0fMPyVa96VcmDTvKzf+yiAAa9+d73vrc2YG1V+1cF6BH5C6+do6W0kcwl30Z514Pn2C/1mnizgZxSfxrgnRR8owc+8H744YeXSbpraSde+04zR5U+0Tty4P4yEDlLu/VJmxy3E/RPn84888zST3oX2huT8Mp3viGyka8G8HW++MUvFv4tCtqjDeG7I7lSB/1ne+dF7xE2SgIakZerXAeNXjXYw4GxmOqfSvQr0WLX7GEFBHdN/x3loazXvOY1ywznG9/4RmGSNKvxGLH1EH2z3cMHnn2qBPDaJMWWEHyN4pFvsm6idoMb3KAYdg7KiPMCnehABq7Yh81G6mG4RUjpsr8aNvGEfNtQNMK5dkbPc98/9oia+4c+6NJ2fSQf+dOA9F/ZsyKyhoaxuVsBdarPkbPJeY9d1Cf0M0FHKwOmfPopaTObyNmRn+PumS403GlAK3Qmq1Jk0NH1/A78rmnpmLyLoK8xzMTEPkM6EL0g01YbbXkzVgLHBH/1IbaQHeTsRm6XxXPt5piRQ23UVm2StgvwQYCMjfJpLX2ODfJnMv4l0rimz66HFvjo01icXHZlkTRRFlprgzEzTrTrrs2LmSypygkxAnBWnbu2CO95qxFCYuQtbnGL0idAZBAyN2v0cWJOKyF4wQteUD5YTEDkY7h9X43DQwDQw70RwwbecUJFgESHrnWtaxUjR7ndo9SS6Do5Z3zJin048pEXjtDHP/7xopgj/hD0C9iGnG82DPwmGQyyiaRvHEYn8c3gazDGO8BXbcvgep3rXKekT3/602Xp27319Nn95IlNTP557EDkTdnavxWDvzrQz9GWCLJtMPT3kvqSQcdgaWvFNa5xjRK11m+01U6JPfS3kgZMTo5n9WPEeUEvjD2hj6NrUlt2QtvIgvvs1Dy65Tn1K4OTYxKHb8rNuOicfSPXvgWq7siiozLYSMfTTjttrY3Lgrq1V/vZcr+1bVYaDRFWOmxNpJv+PUsf8QkE0YxbdBYiX4CHJhaZzLseXs6DmrbaokyTWasx7i2ijt6WNMqkcvu68r/AGphGLhrK7FPuRnlTXgTY3jVGFdPBtRgAs01LhyII/ltZfykkp1V/0UMkxf9B22guL2Hp095VxCL6lzLWK6u+16XOvu0yEbF/0XYWA2x4Cl64YxREW11zLlF+9TAOJipmkZZFR5wX9IcusA91VCYIr/rwdaO87qvHMhfe2juFX4GJhr85Nei6Z1ATDTJIexb/yYH/s+as4WvkYT2wF+TB8yasaafBcqM216jzqldf2FmTKXWAPElttK9NyzcN8mo/sIkm6/4DnjNqgMNTthANRVzphmdEYOkReykPeM4Sse1R0KcdOwVoQm7Q1LYVkyxyi/eRu9BNvuRlh+T1d8sgb/L1oTNeeVaZVhed29oGzskzGcRDUTl688EPfrA5+uij17ZH0S9OkPsCNuTGtcjBVkFbtFdyzlEygUKz0HJR6Err+v60Z/zeqByo87CnbMKtbnWrNYc8/Waz2AoRcsA/tgw/5EETPotVj2zraCNt6tIuUK52gLr9+6Y6yWmuzYuZOKhiiaEnmAQhhJgV6ayBDYH8ZjSzPOJ6F3g2M6qUh6miAJjmWjuPiCllzKAW5hnYGBAG+y1veUu5fve737055JBDmvvd735rCsmQc3ZEYdADbSYJwHYA2tW8npXn4YHkHG8MgJahGEH7agi6e6KfZC1OACUwcbBn1MZ+eU04IkN92iSaoDzOCb6RZUmdnNCUyfkRqfOf0QZlCi+/CQ4ZzXJn5GvEOS87MKr2UJngvetd7yqROvoW3TZI4i3dQUMD4amnntq88pWvLLwlE9mCgbaRl2nAO/fJzqUudanikJJXvDJoqdOkUv2MuuV+7fI3x/SdLsvPyWYz6LM6I3vT4J66DdpsCSeibU82gjLUQxfQhIzbc3vSSSc1b37zm8ueerRAB/kc0Y/soxXd0Zddu3YVmnNylSlfH51IXvQQobE9prZpaMi51wZRarpBZ4844ojmjDPOOI8egZeztHvEeYE3ZIuTiF/GGcu6xx13XPO2t72t0Cx8dk6u8Pc1r3nNmo6QW7/pWeTBM334jU+es4yP3xyZOMZ4qV78ZiPJ2Nlnn918+MMfbk4++eSiZ/KAyYn+0O/wflZ4Pn1YT+9qkM8kEceMGYuAtiTpY45J0
...